<configuration>

<input>
<net-file value="cupertino.net.xml"/>
<route-files value="cupertino.rou.xml"/>
<additional-files value="cupertino.poly.xml"/>
</input>
<time>
<begin value="0"/>
<end value="2000"/>
</time>

</configuration>
