<?xml version="1.0" encoding="UTF-8"?>
<!-- generated on 2019-03-10 23:52:31.109178 by $Id$
  options: -n cupertino.net.xml -r cupertino.rou.xml -e 100 -l
-->
<routes xmlns:xsi="http://www.w3.org/2001/XMLSchema-instance" xsi:noNamespaceSchemaLocation="http://sumo.dlr.de/xsd/routes_file.xsd">
    <trip id="0" depart="0.00" from="-239363039" to="8930360"/>
    <trip id="1" depart="1.00" from="-499994190" to="8941688"/>
    <trip id="2" depart="2.00" from="-8960481" to="506499370#1"/>
    <trip id="3" depart="3.00" from="287163353#0" to="413371804#1"/>
    <trip id="4" depart="4.00" from="8935463#2" to="417725137"/>
    <trip id="5" depart="5.00" from="-8950374#2" to="287163354#2"/>
    <trip id="6" depart="6.00" from="-8949535#3" to="-499994190"/>
    <trip id="7" depart="7.00" from="8960530" to="8938313#1"/>
    <trip id="8" depart="8.00" from="-52380580" to="499994191#1"/>
    <trip id="9" depart="9.00" from="8957641#0" to="-8938313#0"/>
    <trip id="10" depart="10.00" from="-8938554" to="-362457621#1"/>
    <trip id="11" depart="11.00" from="8928339#8" to="317693327#1"/>
    <trip id="12" depart="12.00" from="-8923342#1" to="8928339#1"/>
    <trip id="13" depart="13.00" from="-8965221" to="239362319#1"/>
    <trip id="14" depart="14.00" from="-8957791#13" to="239362319#2"/>
    <trip id="15" depart="15.00" from="-8950374#0" to="8965171"/>
    <trip id="16" depart="16.00" from="198990388#4" to="8953819#1"/>
    <trip id="17" depart="17.00" from="614308044#1" to="-500206565"/>
    <trip id="18" depart="18.00" from="-8949654" to="-8947440#1"/>
    <trip id="19" depart="19.00" from="213852930" to="367054417#0"/>
    <trip id="20" depart="20.00" from="-8928339#1" to="334521370#3"/>
    <trip id="21" depart="21.00" from="8957791#11" to="-425181546#6"/>
    <trip id="22" depart="22.00" from="417028453#1" to="614365186#1"/>
    <trip id="23" depart="23.00" from="8929598" to="317693322"/>
    <trip id="24" depart="24.00" from="8939135" to="317693325#1"/>
    <trip id="25" depart="25.00" from="-52382904#0" to="497210069"/>
    <trip id="26" depart="26.00" from="393494140#3" to="-8945826#2"/>
    <trip id="27" depart="27.00" from="500264958" to="499994191#2"/>
    <trip id="28" depart="28.00" from="198990388#0" to="8945086"/>
    <trip id="29" depart="29.00" from="593271063#4" to="-8929064#1"/>
    <trip id="30" depart="30.00" from="-8950374#2" to="-8959024#9"/>
    <trip id="31" depart="31.00" from="338881468#0" to="-52382916#3"/>
    <trip id="32" depart="32.00" from="614308044#1" to="425181546#4"/>
    <trip id="33" depart="33.00" from="367054416" to="367054416"/>
    <trip id="34" depart="34.00" from="8949535#4" to="198990388#4"/>
    <trip id="35" depart="35.00" from="-497210069" to="20540091#1"/>
    <trip id="36" depart="36.00" from="317693320#4" to="413371802"/>
    <trip id="37" depart="37.00" from="8929598" to="-8949535#0"/>
    <trip id="38" depart="38.00" from="-8957791#13" to="521808595#0"/>
    <trip id="39" depart="39.00" from="8957641#0" to="291249031"/>
    <trip id="40" depart="40.00" from="425181551#1" to="413371806#1"/>
    <trip id="41" depart="41.00" from="317693330#2" to="465478621"/>
    <trip id="42" depart="42.00" from="-8957641#1" to="8957766#0"/>
    <trip id="43" depart="43.00" from="-8929064#0" to="413371806#1"/>
    <trip id="44" depart="44.00" from="8950615#0" to="-167372796"/>
    <trip id="45" depart="45.00" from="8963319#2" to="157747965#4"/>
    <trip id="46" depart="46.00" from="415836041#0" to="499994190"/>
    <trip id="47" depart="47.00" from="-8958659" to="8947440#0"/>
    <trip id="48" depart="48.00" from="8938313#0" to="500206570#1"/>
    <trip id="49" depart="49.00" from="-52380561#9" to="196622920#3"/>
    <trip id="50" depart="50.00" from="317693326#1" to="-499994190"/>
    <trip id="51" depart="51.00" from="8949535#0" to="-8929064#3"/>
    <trip id="52" depart="52.00" from="593271034#0" to="516208799#0"/>
    <trip id="53" depart="53.00" from="449806149#1" to="-393499043#1"/>
    <trip id="54" depart="54.00" from="-338881468#1" to="-8944597"/>
    <trip id="55" depart="55.00" from="417030921#3" to="417030765#0"/>
    <trip id="56" depart="56.00" from="417028432#1" to="593271037"/>
    <trip id="57" depart="57.00" from="52382916#2" to="516209131#0"/>
    <trip id="58" depart="58.00" from="417028432#0" to="-614365187#3"/>
    <trip id="59" depart="59.00" from="8929064#0" to="8945826#2"/>
    <trip id="60" depart="60.00" from="8965833" to="-516209131#0"/>
    <trip id="61" depart="61.00" from="-52382916#0" to="20540091#1"/>
    <trip id="62" depart="62.00" from="8958659" to="-8941688"/>
    <trip id="63" depart="63.00" from="8949535#3" to="-593271063#2"/>
    <trip id="64" depart="64.00" from="8957791#12" to="393499042#0"/>
    <trip id="65" depart="65.00" from="449806149#1" to="8947440#0"/>
    <trip id="66" depart="66.00" from="8956612" to="-334521370#8"/>
    <trip id="67" depart="67.00" from="8947529" to="317693325#1"/>
    <trip id="68" depart="68.00" from="8938313#0" to="-8935463#2"/>
    <trip id="69" depart="69.00" from="8961428" to="-8951752#2"/>
    <trip id="70" depart="70.00" from="-8960481" to="338881468#1"/>
    <trip id="71" depart="71.00" from="8950615#0" to="196622920#5"/>
    <trip id="72" depart="72.00" from="367054417#0" to="-8939135"/>
    <trip id="73" depart="73.00" from="239362319#1" to="499994190"/>
    <trip id="74" depart="74.00" from="-8935463#1" to="8950615#0"/>
    <trip id="75" depart="75.00" from="614365186#2" to="8957791#13"/>
    <trip id="76" depart="76.00" from="8929598" to="8945826#2"/>
    <trip id="77" depart="77.00" from="-500264959#6" to="-52380561#6"/>
    <trip id="78" depart="78.00" from="8923342#0" to="8930369"/>
    <trip id="79" depart="79.00" from="516209131#0" to="-8937316"/>
    <trip id="80" depart="80.00" from="500264959#4" to="-614308044#1"/>
    <trip id="81" depart="81.00" from="-8931230" to="8963319#2"/>
    <trip id="82" depart="82.00" from="8951752#3" to="8957791#13"/>
    <trip id="83" depart="83.00" from="8939135" to="498007413#1"/>
    <trip id="84" depart="84.00" from="417002742" to="516208799#1"/>
    <trip id="85" depart="85.00" from="-8957791#13" to="-8947529"/>
    <trip id="86" depart="86.00" from="8923342#1" to="8960579"/>
    <trip id="87" depart="87.00" from="-8928339#6" to="338881468#0"/>
    <trip id="88" depart="88.00" from="614308044#1" to="497210069"/>
    <trip id="89" depart="89.00" from="-516209131#0" to="-8945086"/>
    <trip id="90" depart="90.00" from="-502912966" to="593271049#1"/>
    <trip id="91" depart="91.00" from="367054417#0" to="-8949535#0"/>
    <trip id="92" depart="92.00" from="593271063#1" to="393494136#0"/>
    <trip id="93" depart="93.00" from="8959024#13" to="8957791#13"/>
    <trip id="94" depart="94.00" from="-417002742" to="8957733"/>
    <trip id="95" depart="95.00" from="8928339#1" to="8928339#2"/>
    <trip id="96" depart="96.00" from="393494135#1" to="20540091#1"/>
    <trip id="97" depart="97.00" from="-576876310" to="-8959024#2"/>
    <trip id="98" depart="98.00" from="-614308044#1" to="-8937316"/>
    <trip id="99" depart="99.00" from="167372796" to="413371803#0"/>
</routes>
