 <edges>
 
 <edge from="n1" to="n2" id="1to2" type="2L45"/>
 <edge from="n2" to="n1" id="2to1" type="2L45"/>
 
 <edge from="n2" to="n3" id="2to3" type="2L5"/>
 <edge from="n3" to="n2" id="3to2" type="2L5"/>
 
 <edge from="n2" to="n4" id="2to4" type="2L5"/>
 <edge from="n4" to="n2" id="4to2" type="2L5"/>
 
 <edge from="n3" to="n5" id="3to5" type="2L30"/>
 <edge from="n5" to="n3" id="5to3" type="2L30"/>
 
 <edge from="n5" to="n7" id="5to7" type="2L30"/>
 <edge from="n7" to="n5" id="7to5" type="2L30"/>
 
 <edge from="n5" to="n11" id="5to11" type="2L30"/>
 <edge from="n11" to="n5" id="11to5" type="2L30"/>
 
 <edge from="n4" to="n6" id="4to6" type="2L30"/>
 <edge from="n6" to="n4" id="6to4" type="2L30"/>
 
 <edge from="n6" to="n8" id="6to8" type="2L30"/>
 <edge from="n8" to="n6" id="8to6" type="2L30"/>
 
 <edge from="n6" to="n11" id="6to11" type="2L30"/>
 <edge from="n11" to="n6" id="11to6" type="2L30"/>
 
 <edge from="n7" to="n9" id="7to9" type="2L30"/>
 <edge from="n9" to="n7" id="9to7" type="2L30"/>
 
 <edge from="n11" to="n12" id="11to12" type="2L30"/>
 <edge from="n12" to="n11" id="12to11" type="2L30"/>
 
 <edge from="n8" to="n10" id="8to10" type="2L30"/>
 <edge from="n10" to="n8" id="10to8" type="2L30"/>
 
 </edges>

