<?xml version="1.0" encoding="UTF-8"?>

<!-- generated on Sun Mar  3 22:41:30 2019 by SUMO netconvert Version 0.32.0
<?xml version="1.0" encoding="UTF-8"?>

<configuration xmlns:xsi="http://www.w3.org/2001/XMLSchema-instance" xsi:noNamespaceSchemaLocation="http://sumo.dlr.de/xsd/netconvertConfiguration.xsd">

    <input>
        <node-files value="my_nod.nod.xml"/>
        <edge-files value="my_edg.edg.xml"/>
        <type-files value="my_type.type.xml"/>
    </input>

    <output>
        <output-file value="my_net.net.xml"/>
    </output>

</configuration>
-->

<net version="0.27" xmlns:xsi="http://www.w3.org/2001/XMLSchema-instance" xsi:noNamespaceSchemaLocation="http://sumo.dlr.de/xsd/net_file.xsd">

    <location netOffset="500.00,400.00" convBoundary="0.00,0.00,750.00,800.00" origBoundary="-500.00,-400.00,250.00,400.00" projParameter="!"/>

    <type id="2L30" priority="2" numLanes="2" speed="30.00"/>
    <type id="2L45" priority="3" numLanes="2" speed="45.00"/>
    <type id="2L5" priority="3" numLanes="2" speed="5.00"/>

    <edge id=":n11d_0" function="internal">
        <lane id=":n11d_0_0" index="0" speed="30.00" length="0.10" shape="495.05,400.00 495.05,400.00"/>
        <lane id=":n11d_0_1" index="1" speed="30.00" length="0.10" shape="498.35,400.00 498.35,400.00"/>
    </edge>
    <edge id=":n11u_0" function="internal">
        <lane id=":n11u_0_0" index="0" speed="30.00" length="5.00" shape="505.95,391.95 506.14,393.31 506.72,394.27 507.69,394.86 509.05,395.05"/>
    </edge>
    <edge id=":n11u_1" function="internal">
        <lane id=":n11u_1_0" index="0" speed="30.00" length="7.85" shape="505.95,391.95 506.14,394.75 506.72,396.75 507.69,397.95 509.05,398.35"/>
    </edge>
    <edge id=":n11u_2" function="internal">
        <lane id=":n11u_2_0" index="0" speed="30.00" length="9.50" shape="505.95,391.95 505.95,401.45"/>
        <lane id=":n11u_2_1" index="1" speed="30.00" length="9.50" shape="502.65,391.95 502.65,401.45"/>
    </edge>
    <edge id=":n2d_0" function="internal">
        <lane id=":n2d_0_0" index="0" speed="25.00" length="5.00" shape="244.05,409.05 243.86,407.69 243.28,406.73 242.31,406.14 240.95,405.95"/>
    </edge>
    <edge id=":n2d_1" function="internal">
        <lane id=":n2d_1_0" index="0" speed="25.00" length="7.85" shape="244.05,409.05 243.86,406.25 243.28,404.25 242.31,403.05 240.95,402.65"/>
    </edge>
    <edge id=":n2d_2" function="internal">
        <lane id=":n2d_2_0" index="0" speed="5.00" length="9.50" shape="244.05,409.05 244.05,399.55"/>
        <lane id=":n2d_2_1" index="1" speed="5.00" length="9.50" shape="247.35,409.05 247.35,399.55"/>
    </edge>
    <edge id=":n2u_0" function="internal">
        <lane id=":n2u_0_0" index="0" speed="5.00" length="9.50" shape="254.95,391.95 254.95,401.45"/>
        <lane id=":n2u_0_1" index="1" speed="5.00" length="9.50" shape="251.65,391.95 251.65,401.45"/>
    </edge>
    <edge id=":n2u_2" function="internal">
        <lane id=":n2u_2_0" index="0" speed="25.00" length="10.32" shape="248.55,395.05 251.35,395.45 253.35,396.65 254.55,398.65 254.95,401.45"/>
    </edge>
    <edge id=":n2u_3" function="internal">
        <lane id=":n2u_3_0" index="0" speed="25.00" length="5.00" shape="248.55,398.35 249.91,398.54 250.88,399.13 251.46,400.09 251.65,401.45"/>
    </edge>
    <edge id=":n3l_0" function="internal">
        <lane id=":n3l_0_0" index="0" speed="17.50" length="7.90" shape="248.95,605.95 246.81,605.64 245.27,604.73 244.36,603.19 244.05,601.05"/>
    </edge>
    <edge id=":n3l_1" function="internal">
        <lane id=":n3l_1_0" index="0" speed="17.50" length="2.58" shape="248.95,602.65 248.25,602.55 247.75,602.25 247.45,601.75 247.35,601.05"/>
    </edge>
    <edge id=":n3r_0" function="internal">
        <lane id=":n3r_0_0" index="0" speed="17.50" length="2.58" shape="254.95,593.45 255.05,594.15 255.35,594.65 255.85,594.95 256.55,595.05"/>
    </edge>
    <edge id=":n3r_1" function="internal">
        <lane id=":n3r_1_0" index="0" speed="17.50" length="7.90" shape="251.65,593.45 251.96,595.59 252.88,597.12 254.41,598.04 256.55,598.35"/>
    </edge>
    <edge id=":n4l_0" function="internal">
        <lane id=":n4l_0_0" index="0" speed="17.50" length="2.58" shape="256.55,204.95 255.85,205.05 255.35,205.35 255.05,205.85 254.95,206.55"/>
    </edge>
    <edge id=":n4l_1" function="internal">
        <lane id=":n4l_1_0" index="0" speed="17.50" length="7.90" shape="256.55,201.65 254.41,201.96 252.88,202.88 251.96,204.41 251.65,206.55"/>
    </edge>
    <edge id=":n4r_0" function="internal">
        <lane id=":n4r_0_0" index="0" speed="17.50" length="7.90" shape="244.05,198.95 244.36,196.81 245.28,195.27 246.81,194.36 248.95,194.05"/>
    </edge>
    <edge id=":n4r_1" function="internal">
        <lane id=":n4r_1_0" index="0" speed="17.50" length="2.58" shape="247.35,198.95 247.45,198.25 247.75,197.75 248.25,197.45 248.95,197.35"/>
    </edge>
    <edge id=":n5d_0" function="internal">
        <lane id=":n5d_0_0" index="0" speed="30.00" length="2.58" shape="493.45,595.05 494.15,594.95 494.65,594.65 494.95,594.15 495.05,593.45"/>
    </edge>
    <edge id=":n5d_1" function="internal">
        <lane id=":n5d_1_0" index="0" speed="30.00" length="7.90" shape="493.45,598.35 495.59,598.04 497.12,597.12 498.04,595.59 498.35,593.45"/>
    </edge>
    <edge id=":n5u_0" function="internal">
        <lane id=":n5u_0_0" index="0" speed="30.00" length="9.50" shape="505.95,599.55 505.95,609.05"/>
        <lane id=":n5u_0_1" index="1" speed="30.00" length="9.50" shape="502.65,599.55 502.65,609.05"/>
    </edge>
    <edge id=":n5u_2" function="internal">
        <lane id=":n5u_2_0" index="0" speed="30.00" length="7.85" shape="502.65,599.55 502.46,602.35 501.87,604.35 500.91,605.55 499.55,605.95"/>
    </edge>
    <edge id=":n5u_3" function="internal">
        <lane id=":n5u_3_0" index="0" speed="30.00" length="5.00" shape="502.65,599.55 502.46,600.91 501.87,601.88 500.91,602.46 499.55,602.65"/>
    </edge>
    <edge id=":n6d_0" function="internal">
        <lane id=":n6d_0_0" index="0" speed="30.00" length="2.58" shape="495.05,206.55 494.95,205.85 494.65,205.35 494.15,205.05 493.45,204.95"/>
    </edge>
    <edge id=":n6d_1" function="internal">
        <lane id=":n6d_1_0" index="0" speed="30.00" length="7.90" shape="498.35,206.55 498.04,204.41 497.13,202.87 495.59,201.96 493.45,201.65"/>
    </edge>
    <edge id=":n6u_0" function="internal">
        <lane id=":n6u_0_0" index="0" speed="30.00" length="5.00" shape="492.95,194.05 494.31,193.86 495.27,193.28 495.86,192.31 496.05,190.95"/>
    </edge>
    <edge id=":n6u_1" function="internal">
        <lane id=":n6u_1_0" index="0" speed="30.00" length="10.32" shape="492.95,197.35 495.75,196.95 497.75,195.75 498.95,193.75 499.35,190.95"/>
    </edge>
    <edge id=":n6u_2" function="internal">
        <lane id=":n6u_2_0" index="0" speed="30.00" length="14.00" shape="492.95,197.35 498.64,197.54 502.70,198.12 505.14,199.09 505.95,200.45"/>
    </edge>
    <edge id=":n6u_3" function="internal">
        <lane id=":n6u_3_0" index="0" speed="30.00" length="10.88" shape="492.95,197.35 497.19,197.54 500.23,198.12 502.04,199.09 502.65,200.45"/>
    </edge>
    <edge id=":n7_0" function="internal">
        <lane id=":n7_0_0" index="0" speed="30.00" length="2.58" shape="505.95,793.45 506.05,794.15 506.35,794.65 506.85,794.95 507.55,795.05"/>
    </edge>
    <edge id=":n7_1" function="internal">
        <lane id=":n7_1_0" index="0" speed="30.00" length="7.90" shape="502.65,793.45 502.96,795.59 503.87,797.12 505.41,798.04 507.55,798.35"/>
    </edge>
    <edge id=":n8_0" function="internal">
        <lane id=":n8_0_0" index="0" speed="30.00" length="7.90" shape="496.05,-0.05 496.36,-2.19 497.28,-3.72 498.81,-4.64 500.95,-4.95"/>
    </edge>
    <edge id=":n8_1" function="internal">
        <lane id=":n8_1_0" index="0" speed="30.00" length="2.58" shape="499.35,-0.05 499.45,-0.75 499.75,-1.25 500.25,-1.55 500.95,-1.65"/>
    </edge>

    <edge id="11to12" from="n11u" to="n12" priority="2" type="2L30">
        <lane id="11to12_0" index="0" speed="30.00" length="240.95" shape="509.05,395.05 750.00,395.05"/>
        <lane id="11to12_1" index="1" speed="30.00" length="240.95" shape="509.05,398.35 750.00,398.35"/>
    </edge>
    <edge id="11to5" from="n11u" to="n5u" priority="2" type="2L30">
        <lane id="11to5_0" index="0" speed="30.00" length="198.10" shape="505.95,401.45 505.95,599.55"/>
        <lane id="11to5_1" index="1" speed="30.00" length="198.10" shape="502.65,401.45 502.65,599.55"/>
    </edge>
    <edge id="11to6" from="n11d" to="n6d" priority="2" type="2L30">
        <lane id="11to6_0" index="0" speed="30.00" length="193.45" shape="495.05,400.00 495.05,206.55"/>
        <lane id="11to6_1" index="1" speed="30.00" length="193.45" shape="498.35,400.00 498.35,206.55"/>
    </edge>
    <edge id="1to2" from="n1r" to="n2u" priority="3" type="2L45">
        <lane id="1to2_0" index="0" speed="45.00" length="248.55" shape="0.00,395.05 248.55,395.05"/>
        <lane id="1to2_1" index="1" speed="45.00" length="248.55" shape="0.00,398.35 248.55,398.35"/>
    </edge>
    <edge id="2to1" from="n2d" to="n1l" priority="3" type="2L45">
        <lane id="2to1_0" index="0" speed="45.00" length="240.95" shape="240.95,405.95 0.00,405.95"/>
        <lane id="2to1_1" index="1" speed="45.00" length="240.95" shape="240.95,402.65 0.00,402.65"/>
    </edge>
    <edge id="2to3" from="n2u" to="n3r" priority="3" type="2L5">
        <lane id="2to3_0" index="0" speed="5.00" length="192.00" shape="254.95,401.45 254.95,593.45"/>
        <lane id="2to3_1" index="1" speed="5.00" length="192.00" shape="251.65,401.45 251.65,593.45"/>
    </edge>
    <edge id="2to4" from="n2d" to="n4r" priority="3" type="2L5">
        <lane id="2to4_0" index="0" speed="5.00" length="200.60" shape="244.05,399.55 244.05,198.95"/>
        <lane id="2to4_1" index="1" speed="5.00" length="200.60" shape="247.35,399.55 247.35,198.95"/>
    </edge>
    <edge id="3to2" from="n3l" to="n2d" priority="3" type="2L5">
        <lane id="3to2_0" index="0" speed="5.00" length="192.00" shape="244.05,601.05 244.05,409.05"/>
        <lane id="3to2_1" index="1" speed="5.00" length="192.00" shape="247.35,601.05 247.35,409.05"/>
    </edge>
    <edge id="3to5" from="n3r" to="n5d" priority="2" type="2L30">
        <lane id="3to5_0" index="0" speed="30.00" length="236.90" shape="256.55,595.05 493.45,595.05"/>
        <lane id="3to5_1" index="1" speed="30.00" length="236.90" shape="256.55,598.35 493.45,598.35"/>
    </edge>
    <edge id="4to2" from="n4l" to="n2u" priority="3" type="2L5">
        <lane id="4to2_0" index="0" speed="5.00" length="185.40" shape="254.95,206.55 254.95,391.95"/>
        <lane id="4to2_1" index="1" speed="5.00" length="185.40" shape="251.65,206.55 251.65,391.95"/>
    </edge>
    <edge id="4to6" from="n4r" to="n6u" priority="2" type="2L30">
        <lane id="4to6_0" index="0" speed="30.00" length="244.00" shape="248.95,194.05 492.95,194.05"/>
        <lane id="4to6_1" index="1" speed="30.00" length="244.00" shape="248.95,197.35 492.95,197.35"/>
    </edge>
    <edge id="5to11" from="n5d" to="n11d" priority="2" type="2L30">
        <lane id="5to11_0" index="0" speed="30.00" length="193.45" shape="495.05,593.45 495.05,400.00"/>
        <lane id="5to11_1" index="1" speed="30.00" length="193.45" shape="498.35,593.45 498.35,400.00"/>
    </edge>
    <edge id="5to3" from="n5u" to="n3l" priority="2" type="2L30">
        <lane id="5to3_0" index="0" speed="30.00" length="250.60" shape="499.55,605.95 248.95,605.95"/>
        <lane id="5to3_1" index="1" speed="30.00" length="250.60" shape="499.55,602.65 248.95,602.65"/>
    </edge>
    <edge id="5to7" from="n5u" to="n7" priority="2" type="2L30">
        <lane id="5to7_0" index="0" speed="30.00" length="184.40" shape="505.95,609.05 505.95,793.45"/>
        <lane id="5to7_1" index="1" speed="30.00" length="184.40" shape="502.65,609.05 502.65,793.45"/>
    </edge>
    <edge id="6to11" from="n6u" to="n11u" priority="2" type="2L30">
        <lane id="6to11_0" index="0" speed="30.00" length="191.50" shape="505.95,200.45 505.95,391.95"/>
        <lane id="6to11_1" index="1" speed="30.00" length="191.50" shape="502.65,200.45 502.65,391.95"/>
    </edge>
    <edge id="6to4" from="n6d" to="n4l" priority="2" type="2L30">
        <lane id="6to4_0" index="0" speed="30.00" length="236.90" shape="493.45,204.95 256.55,204.95"/>
        <lane id="6to4_1" index="1" speed="30.00" length="236.90" shape="493.45,201.65 256.55,201.65"/>
    </edge>
    <edge id="6to8" from="n6u" to="n8" priority="2" type="2L30">
        <lane id="6to8_0" index="0" speed="30.00" length="191.00" shape="496.05,190.95 496.05,-0.05"/>
        <lane id="6to8_1" index="1" speed="30.00" length="191.00" shape="499.35,190.95 499.35,-0.05"/>
    </edge>
    <edge id="7to9" from="n7" to="n9" priority="2" type="2L30">
        <lane id="7to9_0" index="0" speed="30.00" length="242.45" shape="507.55,795.05 750.00,795.05"/>
        <lane id="7to9_1" index="1" speed="30.00" length="242.45" shape="507.55,798.35 750.00,798.35"/>
    </edge>
    <edge id="8to10" from="n8" to="n10" priority="2" type="2L30">
        <lane id="8to10_0" index="0" speed="30.00" length="249.05" shape="500.95,-4.95 750.00,-4.95"/>
        <lane id="8to10_1" index="1" speed="30.00" length="249.05" shape="500.95,-1.65 750.00,-1.65"/>
    </edge>

    <tlLogic id="n11d" type="static" programID="0" offset="0">
        <phase duration="79" state="GG"/>
        <phase duration="6" state="yy"/>
        <phase duration="5" state="rr"/>
    </tlLogic>
    <tlLogic id="n11u" type="static" programID="0" offset="0">
        <phase duration="79" state="GGGG"/>
        <phase duration="6" state="yyyy"/>
        <phase duration="5" state="rrrr"/>
    </tlLogic>
    <tlLogic id="n2d" type="static" programID="0" offset="0">
        <phase duration="82" state="GGGG"/>
        <phase duration="3" state="yyyy"/>
        <phase duration="5" state="rrrr"/>
    </tlLogic>
    <tlLogic id="n2u" type="static" programID="0" offset="0">
        <phase duration="36" state="GGrr"/>
        <phase duration="9" state="yyrr"/>
        <phase duration="36" state="rrGG"/>
        <phase duration="9" state="rryy"/>
    </tlLogic>
    <tlLogic id="n5d" type="static" programID="0" offset="0">
        <phase duration="79" state="GG"/>
        <phase duration="6" state="yy"/>
        <phase duration="5" state="rr"/>
    </tlLogic>
    <tlLogic id="n5u" type="static" programID="0" offset="0">
        <phase duration="79" state="GGGG"/>
        <phase duration="6" state="yyyy"/>
        <phase duration="5" state="rrrr"/>
    </tlLogic>
    <tlLogic id="n6d" type="static" programID="0" offset="0">
        <phase duration="79" state="GG"/>
        <phase duration="6" state="yy"/>
        <phase duration="5" state="rr"/>
    </tlLogic>
    <tlLogic id="n6u" type="static" programID="0" offset="0">
        <phase duration="79" state="GGGG"/>
        <phase duration="6" state="yyyy"/>
        <phase duration="5" state="rrrr"/>
    </tlLogic>

    <junction id="n10" type="dead_end" x="750.00" y="0.00" incLanes="8to10_0 8to10_1" intLanes="" shape="750.00,-6.55 750.00,-0.05"/>
    <junction id="n11d" type="traffic_light" x="500.00" y="400.00" incLanes="5to11_0 5to11_1" intLanes=":n11d_0_0 :n11d_0_1" shape="493.45,400.00 499.95,400.00 493.45,400.00">
        <request index="0" response="00" foes="00" cont="0"/>
        <request index="1" response="00" foes="00" cont="0"/>
    </junction>
    <junction id="n11u" type="traffic_light" x="501.00" y="400.00" incLanes="6to11_0 6to11_1" intLanes=":n11u_0_0 :n11u_1_0 :n11u_2_0 :n11u_2_1" shape="501.05,401.45 507.55,401.45 509.05,399.95 509.05,393.45 507.55,391.95 501.05,391.95">
        <request index="0" response="0000" foes="0000" cont="0"/>
        <request index="1" response="0000" foes="0000" cont="0"/>
        <request index="2" response="0000" foes="0000" cont="0"/>
        <request index="3" response="0000" foes="0000" cont="0"/>
    </junction>
    <junction id="n12" type="dead_end" x="750.00" y="400.00" incLanes="11to12_0 11to12_1" intLanes="" shape="750.00,393.45 750.00,399.95"/>
    <junction id="n1l" type="dead_end" x="0.00" y="401.00" incLanes="2to1_0 2to1_1" intLanes="" shape="0.00,407.55 0.00,401.05"/>
    <junction id="n1r" type="dead_end" x="0.00" y="400.00" incLanes="" intLanes="" shape="0.00,399.95 0.00,393.45"/>
    <junction id="n2d" type="traffic_light" x="249.00" y="401.00" incLanes="3to2_0 3to2_1" intLanes=":n2d_0_0 :n2d_1_0 :n2d_2_0 :n2d_2_1" shape="242.45,409.05 248.95,409.05 248.95,399.55 242.45,399.55 240.95,401.05 240.95,407.55">
        <request index="0" response="0000" foes="0000" cont="0"/>
        <request index="1" response="0000" foes="0000" cont="0"/>
        <request index="2" response="0000" foes="0000" cont="0"/>
        <request index="3" response="0000" foes="0000" cont="0"/>
    </junction>
    <junction id="n2u" type="traffic_light" x="250.00" y="400.00" incLanes="4to2_0 4to2_1 1to2_0 1to2_1" intLanes=":n2u_0_0 :n2u_0_1 :n2u_2_0 :n2u_3_0" shape="250.05,401.45 256.55,401.45 256.55,391.95 250.05,391.95 248.55,393.45 248.55,399.95">
        <request index="0" response="1100" foes="1100" cont="0"/>
        <request index="1" response="1100" foes="1100" cont="0"/>
        <request index="2" response="0000" foes="0011" cont="0"/>
        <request index="3" response="0000" foes="0011" cont="0"/>
    </junction>
    <junction id="n3l" type="priority" x="249.00" y="601.00" incLanes="5to3_0 5to3_1" intLanes=":n3l_0_0 :n3l_1_0" shape="248.95,607.55 248.95,601.05 242.45,601.05">
        <request index="0" response="00" foes="00" cont="0"/>
        <request index="1" response="00" foes="00" cont="0"/>
    </junction>
    <junction id="n3r" type="priority" x="250.00" y="600.00" incLanes="2to3_0 2to3_1" intLanes=":n3r_0_0 :n3r_1_0" shape="256.55,599.95 256.55,593.45 250.05,593.45">
        <request index="0" response="00" foes="00" cont="0"/>
        <request index="1" response="00" foes="00" cont="0"/>
    </junction>
    <junction id="n4l" type="priority" x="250.00" y="200.00" incLanes="6to4_0 6to4_1" intLanes=":n4l_0_0 :n4l_1_0" shape="250.05,206.55 256.55,206.55 256.55,200.05">
        <request index="0" response="00" foes="00" cont="0"/>
        <request index="1" response="00" foes="00" cont="0"/>
    </junction>
    <junction id="n4r" type="priority" x="249.00" y="199.00" incLanes="2to4_0 2to4_1" intLanes=":n4r_0_0 :n4r_1_0" shape="242.45,198.95 248.95,198.95 248.95,192.45">
        <request index="0" response="00" foes="00" cont="0"/>
        <request index="1" response="00" foes="00" cont="0"/>
    </junction>
    <junction id="n5d" type="traffic_light" x="500.00" y="600.00" incLanes="3to5_0 3to5_1" intLanes=":n5d_0_0 :n5d_1_0" shape="499.95,593.45 493.45,593.45 493.45,599.95">
        <request index="0" response="00" foes="00" cont="0"/>
        <request index="1" response="00" foes="00" cont="0"/>
    </junction>
    <junction id="n5u" type="traffic_light" x="501.00" y="601.00" incLanes="11to5_0 11to5_1" intLanes=":n5u_0_0 :n5u_0_1 :n5u_2_0 :n5u_3_0" shape="501.05,609.05 507.55,609.05 507.55,599.55 501.05,599.55 499.55,601.05 499.55,607.55">
        <request index="0" response="0000" foes="0000" cont="0"/>
        <request index="1" response="0000" foes="0000" cont="0"/>
        <request index="2" response="0000" foes="0000" cont="0"/>
        <request index="3" response="0000" foes="0000" cont="0"/>
    </junction>
    <junction id="n6d" type="traffic_light" x="500.00" y="200.00" incLanes="11to6_0 11to6_1" intLanes=":n6d_0_0 :n6d_1_0" shape="493.45,206.55 499.95,206.55 493.45,200.05">
        <request index="0" response="00" foes="00" cont="0"/>
        <request index="1" response="00" foes="00" cont="0"/>
    </junction>
    <junction id="n6u" type="traffic_light" x="501.00" y="199.00" incLanes="4to6_0 4to6_1" intLanes=":n6u_0_0 :n6u_1_0 :n6u_2_0 :n6u_3_0" shape="501.05,200.45 507.55,200.45 500.95,190.95 494.45,190.95 492.95,192.45 492.95,198.95">
        <request index="0" response="0000" foes="0000" cont="0"/>
        <request index="1" response="0000" foes="0000" cont="0"/>
        <request index="2" response="0000" foes="0000" cont="0"/>
        <request index="3" response="0000" foes="0000" cont="0"/>
    </junction>
    <junction id="n7" type="priority" x="501.00" y="800.00" incLanes="5to7_0 5to7_1" intLanes=":n7_0_0 :n7_1_0" shape="507.55,799.95 507.55,793.45 501.05,793.45">
        <request index="0" response="00" foes="00" cont="0"/>
        <request index="1" response="00" foes="00" cont="0"/>
    </junction>
    <junction id="n8" type="priority" x="501.00" y="0.00" incLanes="6to8_0 6to8_1" intLanes=":n8_0_0 :n8_1_0" shape="494.45,-0.05 500.95,-0.05 500.95,-6.55">
        <request index="0" response="00" foes="00" cont="0"/>
        <request index="1" response="00" foes="00" cont="0"/>
    </junction>
    <junction id="n9" type="dead_end" x="750.00" y="800.00" incLanes="7to9_0 7to9_1" intLanes="" shape="750.00,793.45 750.00,799.95"/>

    <connection from="11to5" to="5to7" fromLane="0" toLane="0" via=":n5u_0_0" tl="n5u" linkIndex="0" dir="s" state="o"/>
    <connection from="11to5" to="5to7" fromLane="1" toLane="1" via=":n5u_0_1" tl="n5u" linkIndex="1" dir="s" state="o"/>
    <connection from="11to5" to="5to3" fromLane="1" toLane="0" via=":n5u_2_0" tl="n5u" linkIndex="2" dir="l" state="o"/>
    <connection from="11to5" to="5to3" fromLane="1" toLane="1" via=":n5u_3_0" tl="n5u" linkIndex="3" dir="l" state="o"/>
    <connection from="11to6" to="6to4" fromLane="0" toLane="0" via=":n6d_0_0" tl="n6d" linkIndex="0" dir="r" state="o"/>
    <connection from="11to6" to="6to4" fromLane="1" toLane="1" via=":n6d_1_0" tl="n6d" linkIndex="1" dir="r" state="o"/>
    <connection from="1to2" to="2to3" fromLane="0" toLane="0" via=":n2u_2_0" tl="n2u" linkIndex="2" dir="l" state="o"/>
    <connection from="1to2" to="2to3" fromLane="1" toLane="1" via=":n2u_3_0" tl="n2u" linkIndex="3" dir="l" state="o"/>
    <connection from="2to3" to="3to5" fromLane="0" toLane="0" via=":n3r_0_0" dir="r" state="M"/>
    <connection from="2to3" to="3to5" fromLane="1" toLane="1" via=":n3r_1_0" dir="r" state="M"/>
    <connection from="2to4" to="4to6" fromLane="0" toLane="0" via=":n4r_0_0" dir="l" state="M"/>
    <connection from="2to4" to="4to6" fromLane="1" toLane="1" via=":n4r_1_0" dir="l" state="M"/>
    <connection from="3to2" to="2to1" fromLane="0" toLane="0" via=":n2d_0_0" tl="n2d" linkIndex="0" dir="r" state="o"/>
    <connection from="3to2" to="2to1" fromLane="0" toLane="1" via=":n2d_1_0" tl="n2d" linkIndex="1" dir="r" state="o"/>
    <connection from="3to2" to="2to4" fromLane="0" toLane="0" via=":n2d_2_0" tl="n2d" linkIndex="2" dir="s" state="o"/>
    <connection from="3to2" to="2to4" fromLane="1" toLane="1" via=":n2d_2_1" tl="n2d" linkIndex="3" dir="s" state="o"/>
    <connection from="3to5" to="5to11" fromLane="0" toLane="0" via=":n5d_0_0" tl="n5d" linkIndex="0" dir="r" state="o"/>
    <connection from="3to5" to="5to11" fromLane="1" toLane="1" via=":n5d_1_0" tl="n5d" linkIndex="1" dir="r" state="o"/>
    <connection from="4to2" to="2to3" fromLane="0" toLane="0" via=":n2u_0_0" tl="n2u" linkIndex="0" dir="s" state="o"/>
    <connection from="4to2" to="2to3" fromLane="1" toLane="1" via=":n2u_0_1" tl="n2u" linkIndex="1" dir="s" state="o"/>
    <connection from="4to6" to="6to8" fromLane="0" toLane="0" via=":n6u_0_0" tl="n6u" linkIndex="0" dir="r" state="o"/>
    <connection from="4to6" to="6to8" fromLane="1" toLane="1" via=":n6u_1_0" tl="n6u" linkIndex="1" dir="r" state="o"/>
    <connection from="4to6" to="6to11" fromLane="1" toLane="0" via=":n6u_2_0" tl="n6u" linkIndex="2" dir="l" state="o"/>
    <connection from="4to6" to="6to11" fromLane="1" toLane="1" via=":n6u_3_0" tl="n6u" linkIndex="3" dir="l" state="o"/>
    <connection from="5to11" to="11to6" fromLane="0" toLane="0" via=":n11d_0_0" tl="n11d" linkIndex="0" dir="s" state="o"/>
    <connection from="5to11" to="11to6" fromLane="1" toLane="1" via=":n11d_0_1" tl="n11d" linkIndex="1" dir="s" state="o"/>
    <connection from="5to3" to="3to2" fromLane="0" toLane="0" via=":n3l_0_0" dir="l" state="M"/>
    <connection from="5to3" to="3to2" fromLane="1" toLane="1" via=":n3l_1_0" dir="l" state="M"/>
    <connection from="5to7" to="7to9" fromLane="0" toLane="0" via=":n7_0_0" dir="r" state="M"/>
    <connection from="5to7" to="7to9" fromLane="1" toLane="1" via=":n7_1_0" dir="r" state="M"/>
    <connection from="6to11" to="11to12" fromLane="0" toLane="0" via=":n11u_0_0" tl="n11u" linkIndex="0" dir="r" state="o"/>
    <connection from="6to11" to="11to12" fromLane="0" toLane="1" via=":n11u_1_0" tl="n11u" linkIndex="1" dir="r" state="o"/>
    <connection from="6to11" to="11to5" fromLane="0" toLane="0" via=":n11u_2_0" tl="n11u" linkIndex="2" dir="s" state="o"/>
    <connection from="6to11" to="11to5" fromLane="1" toLane="1" via=":n11u_2_1" tl="n11u" linkIndex="3" dir="s" state="o"/>
    <connection from="6to4" to="4to2" fromLane="0" toLane="0" via=":n4l_0_0" dir="r" state="M"/>
    <connection from="6to4" to="4to2" fromLane="1" toLane="1" via=":n4l_1_0" dir="r" state="M"/>
    <connection from="6to8" to="8to10" fromLane="0" toLane="0" via=":n8_0_0" dir="l" state="M"/>
    <connection from="6to8" to="8to10" fromLane="1" toLane="1" via=":n8_1_0" dir="l" state="M"/>

    <connection from=":n11d_0" to="11to6" fromLane="0" toLane="0" dir="s" state="M"/>
    <connection from=":n11d_0" to="11to6" fromLane="1" toLane="1" dir="s" state="M"/>
    <connection from=":n11u_0" to="11to12" fromLane="0" toLane="0" dir="r" state="M"/>
    <connection from=":n11u_1" to="11to12" fromLane="0" toLane="1" dir="r" state="M"/>
    <connection from=":n11u_2" to="11to5" fromLane="0" toLane="0" dir="s" state="M"/>
    <connection from=":n11u_2" to="11to5" fromLane="1" toLane="1" dir="s" state="M"/>
    <connection from=":n2d_0" to="2to1" fromLane="0" toLane="0" dir="r" state="M"/>
    <connection from=":n2d_1" to="2to1" fromLane="0" toLane="1" dir="r" state="M"/>
    <connection from=":n2d_2" to="2to4" fromLane="0" toLane="0" dir="s" state="M"/>
    <connection from=":n2d_2" to="2to4" fromLane="1" toLane="1" dir="s" state="M"/>
    <connection from=":n2u_0" to="2to3" fromLane="0" toLane="0" dir="s" state="M"/>
    <connection from=":n2u_0" to="2to3" fromLane="1" toLane="1" dir="s" state="M"/>
    <connection from=":n2u_2" to="2to3" fromLane="0" toLane="0" dir="l" state="M"/>
    <connection from=":n2u_3" to="2to3" fromLane="0" toLane="1" dir="l" state="M"/>
    <connection from=":n3l_0" to="3to2" fromLane="0" toLane="0" dir="l" state="M"/>
    <connection from=":n3l_1" to="3to2" fromLane="0" toLane="1" dir="l" state="M"/>
    <connection from=":n3r_0" to="3to5" fromLane="0" toLane="0" dir="r" state="M"/>
    <connection from=":n3r_1" to="3to5" fromLane="0" toLane="1" dir="r" state="M"/>
    <connection from=":n4l_0" to="4to2" fromLane="0" toLane="0" dir="r" state="M"/>
    <connection from=":n4l_1" to="4to2" fromLane="0" toLane="1" dir="r" state="M"/>
    <connection from=":n4r_0" to="4to6" fromLane="0" toLane="0" dir="l" state="M"/>
    <connection from=":n4r_1" to="4to6" fromLane="0" toLane="1" dir="l" state="M"/>
    <connection from=":n5d_0" to="5to11" fromLane="0" toLane="0" dir="r" state="M"/>
    <connection from=":n5d_1" to="5to11" fromLane="0" toLane="1" dir="r" state="M"/>
    <connection from=":n5u_0" to="5to7" fromLane="0" toLane="0" dir="s" state="M"/>
    <connection from=":n5u_0" to="5to7" fromLane="1" toLane="1" dir="s" state="M"/>
    <connection from=":n5u_2" to="5to3" fromLane="0" toLane="0" dir="l" state="M"/>
    <connection from=":n5u_3" to="5to3" fromLane="0" toLane="1" dir="l" state="M"/>
    <connection from=":n6d_0" to="6to4" fromLane="0" toLane="0" dir="r" state="M"/>
    <connection from=":n6d_1" to="6to4" fromLane="0" toLane="1" dir="r" state="M"/>
    <connection from=":n6u_0" to="6to8" fromLane="0" toLane="0" dir="r" state="M"/>
    <connection from=":n6u_1" to="6to8" fromLane="0" toLane="1" dir="r" state="M"/>
    <connection from=":n6u_2" to="6to11" fromLane="0" toLane="0" dir="l" state="M"/>
    <connection from=":n6u_3" to="6to11" fromLane="0" toLane="1" dir="l" state="M"/>
    <connection from=":n7_0" to="7to9" fromLane="0" toLane="0" dir="r" state="M"/>
    <connection from=":n7_1" to="7to9" fromLane="0" toLane="1" dir="r" state="M"/>
    <connection from=":n8_0" to="8to10" fromLane="0" toLane="0" dir="l" state="M"/>
    <connection from=":n8_1" to="8to10" fromLane="0" toLane="1" dir="l" state="M"/>

</net>
