<?xml version="1.0" encoding="UTF-8"?>
<!-- generated on 2019-03-11 02:25:23.319837 by $Id$ via randomTrips.py
  options: -n cupertino.net.xml -r cupertino.rou.xml -e 100 -l <doubleminus>validate
-->
<routes xmlns:xsi="http://www.w3.org/2001/XMLSchema-instance" xsi:noNamespaceSchemaLocation="http://sumo.dlr.de/xsd/routes_file.xsd">
    <trip id="0" depart="0.00" from="8968173" to="8957791#13"/>
    <trip id="1" depart="1.00" from="-8957641#0" to="8953819#1"/>
    <trip id="2" depart="2.00" from="-516209131#0" to="-593271063#1"/>
    <trip id="3" depart="3.00" from="167372796" to="506499370#4"/>
    <trip id="4" depart="4.00" from="8945826#1" to="-8935463#2"/>
    <trip id="5" depart="5.00" from="317693328#1" to="614308044#1"/>
    <trip id="6" depart="6.00" from="8928339#1" to="-8951752#4"/>
    <trip id="7" depart="7.00" from="-614308044#1" to="317693321#0"/>
    <trip id="8" depart="8.00" from="-338881468#1" to="-8928339#1"/>
    <trip id="10" depart="10.00" from="8960579" to="502912967#2"/>
    <trip id="11" depart="11.00" from="413371803#0" to="334521371#0"/>
    <trip id="12" depart="12.00" from="8959024#4" to="8957791#13"/>
    <trip id="13" depart="13.00" from="417030879#2" to="465478621"/>
    <trip id="14" depart="14.00" from="-8951139" to="8944597"/>
    <trip id="15" depart="15.00" from="-334521370#8" to="-425181546#4"/>
    <trip id="16" depart="16.00" from="-614365187#0" to="20540091#0"/>
    <trip id="17" depart="17.00" from="8956612" to="417725137"/>
    <trip id="18" depart="18.00" from="-8928698" to="-8949535#0"/>
    <trip id="19" depart="19.00" from="-499994191#0" to="8933723"/>
    <trip id="20" depart="20.00" from="-393499043#1" to="-425181551#4"/>
    <trip id="21" depart="21.00" from="8929598" to="-8929598"/>
    <trip id="22" depart="22.00" from="-167372797#1" to="255623351#0"/>
    <trip id="23" depart="23.00" from="-425181551#1" to="291249031"/>
    <trip id="24" depart="24.00" from="287163353#0" to="8923342#0"/>
    <trip id="25" depart="25.00" from="8947440#1" to="8957766#1"/>
    <trip id="26" depart="26.00" from="-52380580" to="8957766#0"/>
    <trip id="27" depart="27.00" from="287163331#0" to="8928339#1"/>
    <trip id="28" depart="28.00" from="-8957766#2" to="8963319#2"/>
    <trip id="29" depart="29.00" from="-334521370#5" to="8963641"/>
    <trip id="30" depart="30.00" from="-196622920#5" to="198990388#4"/>
    <trip id="31" depart="31.00" from="8939135" to="362457621#1"/>
    <trip id="32" depart="32.00" from="8928339#3" to="-8949535#0"/>
    <trip id="33" depart="33.00" from="8959024#12" to="-8956612"/>
    <trip id="34" depart="34.00" from="-52382904#3" to="-8941688"/>
    <trip id="35" depart="35.00" from="-8935463#1" to="8950615#1"/>
    <trip id="36" depart="36.00" from="393494140#3" to="393499043#0"/>
    <trip id="37" depart="37.00" from="-8928339#0" to="-334521370#2"/>
    <trip id="38" depart="38.00" from="593271037" to="-8957641#1"/>
    <trip id="39" depart="39.00" from="-8929064#0" to="-502912967#0"/>
    <trip id="40" depart="40.00" from="-338881468#1" to="498007413#1"/>
    <trip id="41" depart="41.00" from="-8959024#12" to="8958659"/>
    <trip id="42" depart="42.00" from="-8933723" to="-8950374#0"/>
    <trip id="43" depart="43.00" from="-8929064#4" to="338881468#1"/>
    <trip id="44" depart="44.00" from="-8959024#1" to="52382916#0"/>
    <trip id="45" depart="45.00" from="317693325#1" to="8957641#1"/>
    <trip id="46" depart="46.00" from="393494138" to="8937316"/>
    <trip id="47" depart="47.00" from="8960579" to="-52380561#6"/>
    <trip id="48" depart="48.00" from="52380561#6" to="-8957766#1"/>
    <trip id="49" depart="49.00" from="287163354#2" to="-425181551#1"/>
    <trip id="50" depart="50.00" from="8929598" to="317693331#1"/>
    <trip id="51" depart="51.00" from="8960579" to="8947529"/>
    <trip id="52" depart="52.00" from="-196622920#5" to="506499370#1"/>
    <trip id="53" depart="53.00" from="-497210069" to="465478621"/>
    <trip id="54" depart="54.00" from="-8957791#13" to="-8958285"/>
    <trip id="55" depart="55.00" from="167372797#0" to="393494142#0"/>
    <trip id="56" depart="56.00" from="8929598" to="8958659"/>
    <trip id="57" depart="57.00" from="291249031" to="291249031"/>
    <trip id="58" depart="58.00" from="417030912#1" to="417028432#1"/>
    <trip id="59" depart="59.00" from="-8957791#3" to="8950374#1"/>
    <trip id="60" depart="60.00" from="8928339#3" to="-413371804#1"/>
    <trip id="61" depart="61.00" from="614365186#2" to="8958659"/>
    <trip id="62" depart="62.00" from="-413371804#1" to="167372796"/>
    <trip id="63" depart="63.00" from="8929064#3" to="413371803#0"/>
    <trip id="64" depart="64.00" from="413371804#0" to="239362319#1"/>
    <trip id="65" depart="65.00" from="-317693320#0" to="-287163332#0"/>
    <trip id="66" depart="66.00" from="338881468#0" to="-8945086"/>
    <trip id="67" depart="67.00" from="-8957791#13" to="8959024#12"/>
    <trip id="68" depart="68.00" from="-8947440#0" to="-8929064#0"/>
    <trip id="69" depart="69.00" from="-8959024#2" to="8945826#2"/>
    <trip id="70" depart="70.00" from="8959024#11" to="-8929598"/>
    <trip id="71" depart="71.00" from="334521371#0" to="-8929064#4"/>
    <trip id="72" depart="72.00" from="-8964097" to="-196622920#0"/>
    <trip id="73" depart="73.00" from="-8957733" to="-8941688"/>
    <trip id="74" depart="74.00" from="-8960603#0" to="367054416"/>
    <trip id="75" depart="75.00" from="-500264959#0" to="519569267#1"/>
    <trip id="76" depart="76.00" from="-8957641#1" to="413371804#1"/>
    <trip id="79" depart="79.00" from="239362311#0" to="393494140#3"/>
    <trip id="80" depart="80.00" from="239362319#0" to="-8928339#3"/>
    <trip id="81" depart="81.00" from="8945086" to="413371804#0"/>
    <trip id="82" depart="82.00" from="417001460#0" to="498007413#0"/>
    <trip id="83" depart="83.00" from="-516209131#0" to="-8929598"/>
    <trip id="84" depart="84.00" from="-8947440#0" to="-614365185#1"/>
    <trip id="85" depart="85.00" from="-175517058" to="-8929598"/>
    <trip id="86" depart="86.00" from="413371802" to="367054416"/>
    <trip id="87" depart="87.00" from="-8960481" to="287163354#2"/>
    <trip id="88" depart="88.00" from="-614308044#1" to="8957766#0"/>
    <trip id="89" depart="89.00" from="-8938313#1" to="25085669#1"/>
    <trip id="90" depart="90.00" from="8950615#1" to="8928612"/>
    <trip id="91" depart="91.00" from="-8928339#1" to="-8945826#1"/>
    <trip id="92" depart="92.00" from="-8928698" to="8930360"/>
    <trip id="93" depart="93.00" from="417030765#0" to="-287163332#2"/>
    <trip id="94" depart="94.00" from="25085669#2" to="-8957791#5"/>
    <trip id="95" depart="95.00" from="-593271063#2" to="-8950374#0"/>
    <trip id="96" depart="96.00" from="519604506" to="8960579"/>
    <trip id="97" depart="97.00" from="-8957641#1" to="317693328#1"/>
    <trip id="98" depart="98.00" from="-614365187#0" to="8964651"/>
    <trip id="99" depart="99.00" from="449806149#1" to="52380561#1"/>
</routes>
