<?xml version="1.0" encoding="UTF-8"?>

<!-- generated on Tue Apr 23 22:24:48 2019 by SUMO netconvert Version 0.32.0
<?xml version="1.0" encoding="UTF-8"?>

<configuration xmlns:xsi="http://www.w3.org/2001/XMLSchema-instance" xsi:noNamespaceSchemaLocation="http://sumo.dlr.de/xsd/netconvertConfiguration.xsd">

    <input>
        <node-files value="my_nod.nod.xml"/>
        <edge-files value="my_edg.edg.xml"/>
        <type-files value="my_type.type.xml"/>
    </input>

    <output>
        <output-file value="my_net.net.xml"/>
    </output>

</configuration>
-->

<net version="0.27" xmlns:xsi="http://www.w3.org/2001/XMLSchema-instance" xsi:noNamespaceSchemaLocation="http://sumo.dlr.de/xsd/net_file.xsd">

    <location netOffset="500.00,400.00" convBoundary="0.00,0.00,750.00,800.00" origBoundary="-500.00,-400.00,250.00,400.00" projParameter="!"/>

    <type id="2L30" priority="2" numLanes="2" speed="30.00"/>
    <type id="2L45" priority="3" numLanes="2" speed="45.00"/>
    <type id="2L5" priority="3" numLanes="2" speed="5.00"/>

    <edge id=":n1_0" function="internal">
        <lane id=":n1_0_0" index="0" speed="45.00" length="4.82" shape="0.00,401.65 -1.24,400.83 -1.65,400.00 -1.24,399.18 0.00,398.35"/>
    </edge>
    <edge id=":n10_0" function="internal">
        <lane id=":n10_0_0" index="0" speed="30.00" length="4.82" shape="750.00,-1.65 751.24,-0.83 751.65,0.00 751.24,0.83 750.00,1.65"/>
    </edge>
    <edge id=":n11_0" function="internal">
        <lane id=":n11_0_0" index="0" speed="30.00" length="16.10" shape="495.05,408.05 495.05,391.95"/>
        <lane id=":n11_0_1" index="1" speed="30.00" length="16.10" shape="498.35,408.05 498.35,391.95"/>
    </edge>
    <edge id=":n11_2" function="internal">
        <lane id=":n11_2_0" index="0" speed="30.00" length="6.41" shape="498.35,408.05 498.96,403.81 500.05,401.98"/>
    </edge>
    <edge id=":n11_3" function="internal">
        <lane id=":n11_3_0" index="0" speed="30.00" length="2.41" shape="498.35,408.05 499.18,406.81 500.00,406.40"/>
    </edge>
    <edge id=":n11_12" function="internal">
        <lane id=":n11_12_0" index="0" speed="30.00" length="9.23" shape="500.05,401.98 500.78,400.77 503.81,398.96 508.05,398.35"/>
    </edge>
    <edge id=":n11_13" function="internal">
        <lane id=":n11_13_0" index="0" speed="30.00" length="2.41" shape="500.00,406.40 500.82,406.81 501.65,408.05"/>
    </edge>
    <edge id=":n11_4" function="internal">
        <lane id=":n11_4_0" index="0" speed="30.00" length="5.00" shape="508.05,404.95 506.69,405.14 505.73,405.72 505.14,406.69 504.95,408.05"/>
    </edge>
    <edge id=":n11_5" function="internal">
        <lane id=":n11_5_0" index="0" speed="30.00" length="10.32" shape="508.05,401.65 505.25,402.05 503.25,403.25 502.05,405.25 501.65,408.05"/>
    </edge>
    <edge id=":n11_6" function="internal">
        <lane id=":n11_6_0" index="0" speed="30.00" length="15.64" shape="508.05,401.65 503.81,401.04 500.77,399.22 498.96,396.19 498.35,391.95"/>
    </edge>
    <edge id=":n11_7" function="internal">
        <lane id=":n11_7_0" index="0" speed="30.00" length="2.41" shape="508.05,401.65 506.81,400.83 506.40,400.00"/>
    </edge>
    <edge id=":n11_14" function="internal">
        <lane id=":n11_14_0" index="0" speed="30.00" length="2.41" shape="506.40,400.00 506.81,399.18 508.05,398.35"/>
    </edge>
    <edge id=":n11_8" function="internal">
        <lane id=":n11_8_0" index="0" speed="30.00" length="5.00" shape="504.95,391.95 505.14,393.31 505.72,394.27 506.69,394.86 508.05,395.05"/>
    </edge>
    <edge id=":n11_9" function="internal">
        <lane id=":n11_9_0" index="0" speed="30.00" length="16.10" shape="504.95,391.95 504.95,408.05"/>
        <lane id=":n11_9_1" index="1" speed="30.00" length="16.10" shape="501.65,391.95 501.65,408.05"/>
    </edge>
    <edge id=":n11_11" function="internal">
        <lane id=":n11_11_0" index="0" speed="30.00" length="2.41" shape="501.65,391.95 500.82,393.19 500.00,393.60"/>
    </edge>
    <edge id=":n11_15" function="internal">
        <lane id=":n11_15_0" index="0" speed="30.00" length="2.41" shape="500.00,393.60 499.18,393.19 498.35,391.95"/>
    </edge>
    <edge id=":n12_0" function="internal">
        <lane id=":n12_0_0" index="0" speed="30.00" length="4.82" shape="750.00,398.35 751.24,399.17 751.65,400.00 751.24,400.82 750.00,401.65"/>
    </edge>
    <edge id=":n2_0" function="internal">
        <lane id=":n2_0_0" index="0" speed="25.00" length="5.00" shape="245.05,408.05 244.86,406.69 244.28,405.73 243.31,405.14 241.95,404.95"/>
    </edge>
    <edge id=":n2_1" function="internal">
        <lane id=":n2_1_0" index="0" speed="5.00" length="16.10" shape="245.05,408.05 245.05,391.95"/>
        <lane id=":n2_1_1" index="1" speed="5.00" length="16.10" shape="248.35,408.05 248.35,391.95"/>
    </edge>
    <edge id=":n2_3" function="internal">
        <lane id=":n2_3_0" index="0" speed="5.00" length="2.41" shape="248.35,408.05 249.18,406.81 250.00,406.40"/>
    </edge>
    <edge id=":n2_12" function="internal">
        <lane id=":n2_12_0" index="0" speed="5.00" length="2.41" shape="250.00,406.40 250.82,406.81 251.65,408.05"/>
    </edge>
    <edge id=":n2_4" function="internal">
        <lane id=":n2_4_0" index="0" speed="5.00" length="16.10" shape="254.95,391.95 254.95,408.05"/>
        <lane id=":n2_4_1" index="1" speed="5.00" length="16.10" shape="251.65,391.95 251.65,408.05"/>
    </edge>
    <edge id=":n2_6" function="internal">
        <lane id=":n2_6_0" index="0" speed="25.00" length="6.41" shape="251.65,391.95 251.04,396.19 249.95,398.02"/>
    </edge>
    <edge id=":n2_7" function="internal">
        <lane id=":n2_7_0" index="0" speed="5.00" length="2.41" shape="251.65,391.95 250.82,393.19 250.00,393.60"/>
    </edge>
    <edge id=":n2_13" function="internal">
        <lane id=":n2_13_0" index="0" speed="25.00" length="9.23" shape="249.95,398.02 249.23,399.23 246.19,401.04 241.95,401.65"/>
    </edge>
    <edge id=":n2_14" function="internal">
        <lane id=":n2_14_0" index="0" speed="5.00" length="2.41" shape="250.00,393.60 249.18,393.19 248.35,391.95"/>
    </edge>
    <edge id=":n2_8" function="internal">
        <lane id=":n2_8_0" index="0" speed="25.00" length="5.00" shape="241.95,395.05 243.31,394.86 244.28,394.28 244.86,393.31 245.05,391.95"/>
    </edge>
    <edge id=":n2_9" function="internal">
        <lane id=":n2_9_0" index="0" speed="25.00" length="10.32" shape="241.95,398.35 244.75,397.95 246.75,396.75 247.95,394.75 248.35,391.95"/>
    </edge>
    <edge id=":n2_10" function="internal">
        <lane id=":n2_10_0" index="0" speed="25.00" length="15.64" shape="241.95,398.35 246.19,398.96 249.22,400.78 251.04,403.81 251.65,408.05"/>
    </edge>
    <edge id=":n2_11" function="internal">
        <lane id=":n2_11_0" index="0" speed="45.00" length="2.41" shape="241.95,398.35 243.19,399.17 243.60,400.00"/>
    </edge>
    <edge id=":n2_15" function="internal">
        <lane id=":n2_15_0" index="0" speed="45.00" length="2.41" shape="243.60,400.00 243.19,400.82 241.95,401.65"/>
    </edge>
    <edge id=":n3_0" function="internal">
        <lane id=":n3_0_0" index="0" speed="17.50" length="18.55" shape="256.55,604.95 251.52,604.23 247.93,602.08 245.77,598.48 245.05,593.45"/>
    </edge>
    <edge id=":n3_1" function="internal">
        <lane id=":n3_1_0" index="0" speed="17.50" length="13.22" shape="256.55,601.65 252.96,601.14 250.40,599.60 248.86,597.04 248.35,593.45"/>
    </edge>
    <edge id=":n3_2" function="internal">
        <lane id=":n3_2_0" index="0" speed="30.00" length="4.82" shape="256.55,601.65 255.31,600.82 254.90,600.00 255.31,599.17 256.55,598.35"/>
    </edge>
    <edge id=":n3_3" function="internal">
        <lane id=":n3_3_0" index="0" speed="17.50" length="2.58" shape="254.95,593.45 255.05,594.15 255.35,594.65 255.85,594.95 256.55,595.05"/>
    </edge>
    <edge id=":n3_4" function="internal">
        <lane id=":n3_4_0" index="0" speed="17.50" length="7.90" shape="251.65,593.45 251.96,595.59 252.88,597.12 254.41,598.04 256.55,598.35"/>
    </edge>
    <edge id=":n3_5" function="internal">
        <lane id=":n3_5_0" index="0" speed="5.00" length="4.82" shape="251.65,593.45 250.82,594.69 250.00,595.10 249.18,594.69 248.35,593.45"/>
    </edge>
    <edge id=":n4_0" function="internal">
        <lane id=":n4_0_0" index="0" speed="17.50" length="18.55" shape="245.05,206.55 245.77,201.52 247.93,197.93 251.52,195.77 256.55,195.05"/>
    </edge>
    <edge id=":n4_1" function="internal">
        <lane id=":n4_1_0" index="0" speed="17.50" length="13.22" shape="248.35,206.55 248.86,202.96 250.40,200.40 252.96,198.86 256.55,198.35"/>
    </edge>
    <edge id=":n4_2" function="internal">
        <lane id=":n4_2_0" index="0" speed="5.00" length="4.82" shape="248.35,206.55 249.18,205.31 250.00,204.90 250.82,205.31 251.65,206.55"/>
    </edge>
    <edge id=":n4_3" function="internal">
        <lane id=":n4_3_0" index="0" speed="17.50" length="2.58" shape="256.55,204.95 255.85,205.05 255.35,205.35 255.05,205.85 254.95,206.55"/>
    </edge>
    <edge id=":n4_4" function="internal">
        <lane id=":n4_4_0" index="0" speed="17.50" length="7.90" shape="256.55,201.65 254.41,201.96 252.88,202.88 251.96,204.41 251.65,206.55"/>
    </edge>
    <edge id=":n4_5" function="internal">
        <lane id=":n4_5_0" index="0" speed="30.00" length="4.82" shape="256.55,201.65 255.31,200.83 254.90,200.00 255.31,199.18 256.55,198.35"/>
    </edge>
    <edge id=":n5_0" function="internal">
        <lane id=":n5_0_0" index="0" speed="30.00" length="5.00" shape="495.05,608.05 494.86,606.69 494.28,605.73 493.31,605.14 491.95,604.95"/>
    </edge>
    <edge id=":n5_1" function="internal">
        <lane id=":n5_1_0" index="0" speed="30.00" length="16.10" shape="495.05,608.05 495.05,591.95"/>
        <lane id=":n5_1_1" index="1" speed="30.00" length="16.10" shape="498.35,608.05 498.35,591.95"/>
    </edge>
    <edge id=":n5_3" function="internal">
        <lane id=":n5_3_0" index="0" speed="30.00" length="2.41" shape="498.35,608.05 499.18,606.81 500.00,606.40"/>
    </edge>
    <edge id=":n5_12" function="internal">
        <lane id=":n5_12_0" index="0" speed="30.00" length="2.41" shape="500.00,606.40 500.82,606.81 501.65,608.05"/>
    </edge>
    <edge id=":n5_4" function="internal">
        <lane id=":n5_4_0" index="0" speed="30.00" length="16.10" shape="504.95,591.95 504.95,608.05"/>
        <lane id=":n5_4_1" index="1" speed="30.00" length="16.10" shape="501.65,591.95 501.65,608.05"/>
    </edge>
    <edge id=":n5_6" function="internal">
        <lane id=":n5_6_0" index="0" speed="30.00" length="6.41" shape="501.65,591.95 501.04,596.19 499.95,598.02"/>
    </edge>
    <edge id=":n5_7" function="internal">
        <lane id=":n5_7_0" index="0" speed="30.00" length="2.41" shape="501.65,591.95 500.82,593.19 500.00,593.60"/>
    </edge>
    <edge id=":n5_13" function="internal">
        <lane id=":n5_13_0" index="0" speed="30.00" length="9.23" shape="499.95,598.02 499.22,599.23 496.19,601.04 491.95,601.65"/>
    </edge>
    <edge id=":n5_14" function="internal">
        <lane id=":n5_14_0" index="0" speed="30.00" length="2.41" shape="500.00,593.60 499.18,593.19 498.35,591.95"/>
    </edge>
    <edge id=":n5_8" function="internal">
        <lane id=":n5_8_0" index="0" speed="30.00" length="5.00" shape="491.95,595.05 493.31,594.86 494.27,594.27 494.86,593.31 495.05,591.95"/>
    </edge>
    <edge id=":n5_9" function="internal">
        <lane id=":n5_9_0" index="0" speed="30.00" length="10.32" shape="491.95,598.35 494.75,597.95 496.75,596.75 497.95,594.75 498.35,591.95"/>
    </edge>
    <edge id=":n5_10" function="internal">
        <lane id=":n5_10_0" index="0" speed="30.00" length="15.64" shape="491.95,598.35 496.19,598.96 499.23,600.78 501.04,603.81 501.65,608.05"/>
    </edge>
    <edge id=":n5_11" function="internal">
        <lane id=":n5_11_0" index="0" speed="30.00" length="2.41" shape="491.95,598.35 493.19,599.18 493.60,600.00"/>
    </edge>
    <edge id=":n5_15" function="internal">
        <lane id=":n5_15_0" index="0" speed="30.00" length="2.41" shape="493.60,600.00 493.19,600.83 491.95,601.65"/>
    </edge>
    <edge id=":n6_0" function="internal">
        <lane id=":n6_0_0" index="0" speed="30.00" length="5.00" shape="495.05,208.05 494.86,206.69 494.28,205.72 493.31,205.14 491.95,204.95"/>
    </edge>
    <edge id=":n6_1" function="internal">
        <lane id=":n6_1_0" index="0" speed="30.00" length="16.10" shape="495.05,208.05 495.05,191.95"/>
        <lane id=":n6_1_1" index="1" speed="30.00" length="16.10" shape="498.35,208.05 498.35,191.95"/>
    </edge>
    <edge id=":n6_3" function="internal">
        <lane id=":n6_3_0" index="0" speed="30.00" length="2.41" shape="498.35,208.05 499.18,206.81 500.00,206.40"/>
    </edge>
    <edge id=":n6_12" function="internal">
        <lane id=":n6_12_0" index="0" speed="30.00" length="2.41" shape="500.00,206.40 500.82,206.81 501.65,208.05"/>
    </edge>
    <edge id=":n6_4" function="internal">
        <lane id=":n6_4_0" index="0" speed="30.00" length="16.10" shape="504.95,191.95 504.95,208.05"/>
        <lane id=":n6_4_1" index="1" speed="30.00" length="16.10" shape="501.65,191.95 501.65,208.05"/>
    </edge>
    <edge id=":n6_6" function="internal">
        <lane id=":n6_6_0" index="0" speed="30.00" length="6.41" shape="501.65,191.95 501.04,196.19 499.95,198.02"/>
    </edge>
    <edge id=":n6_7" function="internal">
        <lane id=":n6_7_0" index="0" speed="30.00" length="2.41" shape="501.65,191.95 500.82,193.19 500.00,193.60"/>
    </edge>
    <edge id=":n6_13" function="internal">
        <lane id=":n6_13_0" index="0" speed="30.00" length="9.23" shape="499.95,198.02 499.22,199.22 496.19,201.04 491.95,201.65"/>
    </edge>
    <edge id=":n6_14" function="internal">
        <lane id=":n6_14_0" index="0" speed="30.00" length="2.41" shape="500.00,193.60 499.18,193.19 498.35,191.95"/>
    </edge>
    <edge id=":n6_8" function="internal">
        <lane id=":n6_8_0" index="0" speed="30.00" length="5.00" shape="491.95,195.05 493.31,194.86 494.27,194.28 494.86,193.31 495.05,191.95"/>
    </edge>
    <edge id=":n6_9" function="internal">
        <lane id=":n6_9_0" index="0" speed="30.00" length="10.32" shape="491.95,198.35 494.75,197.95 496.75,196.75 497.95,194.75 498.35,191.95"/>
    </edge>
    <edge id=":n6_10" function="internal">
        <lane id=":n6_10_0" index="0" speed="30.00" length="15.64" shape="491.95,198.35 496.19,198.96 499.23,200.77 501.04,203.81 501.65,208.05"/>
    </edge>
    <edge id=":n6_11" function="internal">
        <lane id=":n6_11_0" index="0" speed="30.00" length="2.41" shape="491.95,198.35 493.19,199.17 493.60,200.00"/>
    </edge>
    <edge id=":n6_15" function="internal">
        <lane id=":n6_15_0" index="0" speed="30.00" length="2.41" shape="493.60,200.00 493.19,200.82 491.95,201.65"/>
    </edge>
    <edge id=":n7_0" function="internal">
        <lane id=":n7_0_0" index="0" speed="30.00" length="18.55" shape="506.55,804.95 501.52,804.23 497.93,802.08 495.77,798.48 495.05,793.45"/>
    </edge>
    <edge id=":n7_1" function="internal">
        <lane id=":n7_1_0" index="0" speed="30.00" length="13.22" shape="506.55,801.65 502.96,801.14 500.40,799.60 498.86,797.04 498.35,793.45"/>
    </edge>
    <edge id=":n7_2" function="internal">
        <lane id=":n7_2_0" index="0" speed="30.00" length="2.69" shape="506.55,801.65 505.31,800.82 504.90,800.00 505.03,799.75"/>
    </edge>
    <edge id=":n7_6" function="internal">
        <lane id=":n7_6_0" index="0" speed="30.00" length="2.13" shape="505.03,799.75 505.31,799.17 506.55,798.35"/>
    </edge>
    <edge id=":n7_3" function="internal">
        <lane id=":n7_3_0" index="0" speed="30.00" length="2.58" shape="504.95,793.45 505.05,794.15 505.35,794.65 505.85,794.95 506.55,795.05"/>
    </edge>
    <edge id=":n7_4" function="internal">
        <lane id=":n7_4_0" index="0" speed="30.00" length="7.90" shape="501.65,793.45 501.96,795.59 502.87,797.12 504.41,798.04 506.55,798.35"/>
    </edge>
    <edge id=":n7_5" function="internal">
        <lane id=":n7_5_0" index="0" speed="30.00" length="2.20" shape="501.65,793.45 500.82,794.69 500.19,795.01"/>
    </edge>
    <edge id=":n7_7" function="internal">
        <lane id=":n7_7_0" index="0" speed="30.00" length="2.62" shape="500.19,795.01 500.00,795.10 499.18,794.69 498.35,793.45"/>
    </edge>
    <edge id=":n8_0" function="internal">
        <lane id=":n8_0_0" index="0" speed="30.00" length="18.55" shape="495.05,6.55 495.77,1.52 497.93,-2.07 501.52,-4.23 506.55,-4.95"/>
    </edge>
    <edge id=":n8_1" function="internal">
        <lane id=":n8_1_0" index="0" speed="30.00" length="13.22" shape="498.35,6.55 498.86,2.96 500.40,0.40 502.96,-1.14 506.55,-1.65"/>
    </edge>
    <edge id=":n8_2" function="internal">
        <lane id=":n8_2_0" index="0" speed="30.00" length="2.69" shape="498.35,6.55 499.18,5.31 500.00,4.90 500.25,5.03"/>
    </edge>
    <edge id=":n8_6" function="internal">
        <lane id=":n8_6_0" index="0" speed="30.00" length="2.13" shape="500.25,5.03 500.82,5.31 501.65,6.55"/>
    </edge>
    <edge id=":n8_3" function="internal">
        <lane id=":n8_3_0" index="0" speed="30.00" length="2.58" shape="506.55,4.95 505.85,5.05 505.35,5.35 505.05,5.85 504.95,6.55"/>
    </edge>
    <edge id=":n8_4" function="internal">
        <lane id=":n8_4_0" index="0" speed="30.00" length="7.90" shape="506.55,1.65 504.41,1.96 502.88,2.88 501.96,4.41 501.65,6.55"/>
    </edge>
    <edge id=":n8_5" function="internal">
        <lane id=":n8_5_0" index="0" speed="30.00" length="2.20" shape="506.55,1.65 505.31,0.83 504.99,0.19"/>
    </edge>
    <edge id=":n8_7" function="internal">
        <lane id=":n8_7_0" index="0" speed="30.00" length="2.62" shape="504.99,0.19 504.90,0.00 505.31,-0.83 506.55,-1.65"/>
    </edge>
    <edge id=":n9_0" function="internal">
        <lane id=":n9_0_0" index="0" speed="30.00" length="4.82" shape="750.00,798.35 751.24,799.18 751.65,800.00 751.24,800.83 750.00,801.65"/>
    </edge>

    <edge id="10to8" from="n10" to="n8" priority="2" type="2L30">
        <lane id="10to8_0" index="0" speed="30.00" length="243.45" shape="750.00,4.95 506.55,4.95"/>
        <lane id="10to8_1" index="1" speed="30.00" length="243.45" shape="750.00,1.65 506.55,1.65"/>
    </edge>
    <edge id="11to12" from="n11" to="n12" priority="2" type="2L30">
        <lane id="11to12_0" index="0" speed="30.00" length="241.95" shape="508.05,395.05 750.00,395.05"/>
        <lane id="11to12_1" index="1" speed="30.00" length="241.95" shape="508.05,398.35 750.00,398.35"/>
    </edge>
    <edge id="11to5" from="n11" to="n5" priority="2" type="2L30">
        <lane id="11to5_0" index="0" speed="30.00" length="183.90" shape="504.95,408.05 504.95,591.95"/>
        <lane id="11to5_1" index="1" speed="30.00" length="183.90" shape="501.65,408.05 501.65,591.95"/>
    </edge>
    <edge id="11to6" from="n11" to="n6" priority="2" type="2L30">
        <lane id="11to6_0" index="0" speed="30.00" length="183.90" shape="495.05,391.95 495.05,208.05"/>
        <lane id="11to6_1" index="1" speed="30.00" length="183.90" shape="498.35,391.95 498.35,208.05"/>
    </edge>
    <edge id="12to11" from="n12" to="n11" priority="2" type="2L30">
        <lane id="12to11_0" index="0" speed="30.00" length="241.95" shape="750.00,404.95 508.05,404.95"/>
        <lane id="12to11_1" index="1" speed="30.00" length="241.95" shape="750.00,401.65 508.05,401.65"/>
    </edge>
    <edge id="1to2" from="n1" to="n2" priority="3" type="2L45">
        <lane id="1to2_0" index="0" speed="45.00" length="241.95" shape="0.00,395.05 241.95,395.05"/>
        <lane id="1to2_1" index="1" speed="45.00" length="241.95" shape="0.00,398.35 241.95,398.35"/>
    </edge>
    <edge id="2to1" from="n2" to="n1" priority="3" type="2L45">
        <lane id="2to1_0" index="0" speed="45.00" length="241.95" shape="241.95,404.95 0.00,404.95"/>
        <lane id="2to1_1" index="1" speed="45.00" length="241.95" shape="241.95,401.65 0.00,401.65"/>
    </edge>
    <edge id="2to3" from="n2" to="n3" priority="3" type="2L5">
        <lane id="2to3_0" index="0" speed="5.00" length="185.40" shape="254.95,408.05 254.95,593.45"/>
        <lane id="2to3_1" index="1" speed="5.00" length="185.40" shape="251.65,408.05 251.65,593.45"/>
    </edge>
    <edge id="2to4" from="n2" to="n4" priority="3" type="2L5">
        <lane id="2to4_0" index="0" speed="5.00" length="185.40" shape="245.05,391.95 245.05,206.55"/>
        <lane id="2to4_1" index="1" speed="5.00" length="185.40" shape="248.35,391.95 248.35,206.55"/>
    </edge>
    <edge id="3to2" from="n3" to="n2" priority="3" type="2L5">
        <lane id="3to2_0" index="0" speed="5.00" length="185.40" shape="245.05,593.45 245.05,408.05"/>
        <lane id="3to2_1" index="1" speed="5.00" length="185.40" shape="248.35,593.45 248.35,408.05"/>
    </edge>
    <edge id="3to5" from="n3" to="n5" priority="2" type="2L30">
        <lane id="3to5_0" index="0" speed="30.00" length="235.40" shape="256.55,595.05 491.95,595.05"/>
        <lane id="3to5_1" index="1" speed="30.00" length="235.40" shape="256.55,598.35 491.95,598.35"/>
    </edge>
    <edge id="4to2" from="n4" to="n2" priority="3" type="2L5">
        <lane id="4to2_0" index="0" speed="5.00" length="185.40" shape="254.95,206.55 254.95,391.95"/>
        <lane id="4to2_1" index="1" speed="5.00" length="185.40" shape="251.65,206.55 251.65,391.95"/>
    </edge>
    <edge id="4to6" from="n4" to="n6" priority="2" type="2L30">
        <lane id="4to6_0" index="0" speed="30.00" length="235.40" shape="256.55,195.05 491.95,195.05"/>
        <lane id="4to6_1" index="1" speed="30.00" length="235.40" shape="256.55,198.35 491.95,198.35"/>
    </edge>
    <edge id="5to11" from="n5" to="n11" priority="2" type="2L30">
        <lane id="5to11_0" index="0" speed="30.00" length="183.90" shape="495.05,591.95 495.05,408.05"/>
        <lane id="5to11_1" index="1" speed="30.00" length="183.90" shape="498.35,591.95 498.35,408.05"/>
    </edge>
    <edge id="5to3" from="n5" to="n3" priority="2" type="2L30">
        <lane id="5to3_0" index="0" speed="30.00" length="235.40" shape="491.95,604.95 256.55,604.95"/>
        <lane id="5to3_1" index="1" speed="30.00" length="235.40" shape="491.95,601.65 256.55,601.65"/>
    </edge>
    <edge id="5to7" from="n5" to="n7" priority="2" type="2L30">
        <lane id="5to7_0" index="0" speed="30.00" length="185.40" shape="504.95,608.05 504.95,793.45"/>
        <lane id="5to7_1" index="1" speed="30.00" length="185.40" shape="501.65,608.05 501.65,793.45"/>
    </edge>
    <edge id="6to11" from="n6" to="n11" priority="2" type="2L30">
        <lane id="6to11_0" index="0" speed="30.00" length="183.90" shape="504.95,208.05 504.95,391.95"/>
        <lane id="6to11_1" index="1" speed="30.00" length="183.90" shape="501.65,208.05 501.65,391.95"/>
    </edge>
    <edge id="6to4" from="n6" to="n4" priority="2" type="2L30">
        <lane id="6to4_0" index="0" speed="30.00" length="235.40" shape="491.95,204.95 256.55,204.95"/>
        <lane id="6to4_1" index="1" speed="30.00" length="235.40" shape="491.95,201.65 256.55,201.65"/>
    </edge>
    <edge id="6to8" from="n6" to="n8" priority="2" type="2L30">
        <lane id="6to8_0" index="0" speed="30.00" length="185.40" shape="495.05,191.95 495.05,6.55"/>
        <lane id="6to8_1" index="1" speed="30.00" length="185.40" shape="498.35,191.95 498.35,6.55"/>
    </edge>
    <edge id="7to5" from="n7" to="n5" priority="2" type="2L30">
        <lane id="7to5_0" index="0" speed="30.00" length="185.40" shape="495.05,793.45 495.05,608.05"/>
        <lane id="7to5_1" index="1" speed="30.00" length="185.40" shape="498.35,793.45 498.35,608.05"/>
    </edge>
    <edge id="7to9" from="n7" to="n9" priority="2" type="2L30">
        <lane id="7to9_0" index="0" speed="30.00" length="243.45" shape="506.55,795.05 750.00,795.05"/>
        <lane id="7to9_1" index="1" speed="30.00" length="243.45" shape="506.55,798.35 750.00,798.35"/>
    </edge>
    <edge id="8to10" from="n8" to="n10" priority="2" type="2L30">
        <lane id="8to10_0" index="0" speed="30.00" length="243.45" shape="506.55,-4.95 750.00,-4.95"/>
        <lane id="8to10_1" index="1" speed="30.00" length="243.45" shape="506.55,-1.65 750.00,-1.65"/>
    </edge>
    <edge id="8to6" from="n8" to="n6" priority="2" type="2L30">
        <lane id="8to6_0" index="0" speed="30.00" length="185.40" shape="504.95,6.55 504.95,191.95"/>
        <lane id="8to6_1" index="1" speed="30.00" length="185.40" shape="501.65,6.55 501.65,191.95"/>
    </edge>
    <edge id="9to7" from="n9" to="n7" priority="2" type="2L30">
        <lane id="9to7_0" index="0" speed="30.00" length="243.45" shape="750.00,804.95 506.55,804.95"/>
        <lane id="9to7_1" index="1" speed="30.00" length="243.45" shape="750.00,801.65 506.55,801.65"/>
    </edge>

    <tlLogic id="n11" type="static" programID="0" offset="0">
        <phase duration="33" state="GGggrrrrGGGg"/>
        <phase duration="6" state="yyggrrrryyyg"/>
        <phase duration="6" state="rrGGrrrrrrrG"/>
        <phase duration="6" state="rryyrrrrrrry"/>
        <phase duration="33" state="rrrrGGGgGrrr"/>
        <phase duration="6" state="rrrryyyyyrrr"/>
    </tlLogic>
    <tlLogic id="n2" type="static" programID="0" offset="0">
        <phase duration="28" state="GGGgGGggrrrr"/>
        <phase duration="9" state="yyygyyggrrrr"/>
        <phase duration="6" state="rrrGrrGGrrrr"/>
        <phase duration="9" state="rrryrryyrrrr"/>
        <phase duration="29" state="GrrrrrrrGGGg"/>
        <phase duration="9" state="yrrrrrrryyyy"/>
    </tlLogic>
    <tlLogic id="n5" type="static" programID="0" offset="0">
        <phase duration="33" state="GGGgGGggrrrr"/>
        <phase duration="6" state="yyygyyggrrrr"/>
        <phase duration="6" state="rrrGrrGGrrrr"/>
        <phase duration="6" state="rrryrryyrrrr"/>
        <phase duration="33" state="GrrrrrrrGGGg"/>
        <phase duration="6" state="yrrrrrrryyyy"/>
    </tlLogic>
    <tlLogic id="n6" type="static" programID="0" offset="0">
        <phase duration="33" state="GGGgGGggrrrr"/>
        <phase duration="6" state="yyygyyggrrrr"/>
        <phase duration="6" state="rrrGrrGGrrrr"/>
        <phase duration="6" state="rrryrryyrrrr"/>
        <phase duration="33" state="GrrrrrrrGGGg"/>
        <phase duration="6" state="yrrrrrrryyyy"/>
    </tlLogic>

    <junction id="n1" type="priority" x="0.00" y="400.00" incLanes="2to1_0 2to1_1" intLanes=":n1_0_0" shape="0.00,399.95 0.00,406.55 0.00,400.05">
        <request index="0" response="0" foes="0" cont="0"/>
    </junction>
    <junction id="n10" type="priority" x="750.00" y="0.00" incLanes="8to10_0 8to10_1" intLanes=":n10_0_0" shape="750.00,0.05 750.00,-6.55 750.00,-0.05">
        <request index="0" response="0" foes="0" cont="0"/>
    </junction>
    <junction id="n11" type="traffic_light" x="500.00" y="400.00" incLanes="5to11_0 5to11_1 12to11_0 12to11_1 6to11_0 6to11_1" intLanes=":n11_0_0 :n11_0_1 :n11_12_0 :n11_13_0 :n11_4_0 :n11_5_0 :n11_6_0 :n11_14_0 :n11_8_0 :n11_9_0 :n11_9_1 :n11_15_0" shape="493.45,408.05 506.55,408.05 508.05,406.55 508.05,393.45 506.55,391.95 493.45,391.95">
        <request index="0" response="000000000000" foes="100001000000" cont="0"/>
        <request index="1" response="000000000000" foes="100001000000" cont="0"/>
        <request index="2" response="011100000000" foes="011111000000" cont="1"/>
        <request index="3" response="011000110000" foes="011000110000" cont="1"/>
        <request index="4" response="011000000000" foes="011000001000" cont="0"/>
        <request index="5" response="011000000000" foes="011000001000" cont="0"/>
        <request index="6" response="011000000111" foes="111000000111" cont="0"/>
        <request index="7" response="000100000100" foes="000100000100" cont="1"/>
        <request index="8" response="000000000000" foes="000010000100" cont="0"/>
        <request index="9" response="000000000000" foes="000001111100" cont="0"/>
        <request index="10" response="000000000000" foes="000001111100" cont="0"/>
        <request index="11" response="000001000011" foes="000001000011" cont="1"/>
    </junction>
    <junction id="n12" type="priority" x="750.00" y="400.00" incLanes="11to12_0 11to12_1" intLanes=":n12_0_0" shape="750.00,400.05 750.00,393.45 750.00,399.95">
        <request index="0" response="0" foes="0" cont="0"/>
    </junction>
    <junction id="n2" type="traffic_light" x="250.00" y="400.00" incLanes="3to2_0 3to2_1 4to2_0 4to2_1 1to2_0 1to2_1" intLanes=":n2_0_0 :n2_1_0 :n2_1_1 :n2_12_0 :n2_4_0 :n2_4_1 :n2_13_0 :n2_14_0 :n2_8_0 :n2_9_0 :n2_10_0 :n2_15_0" shape="243.45,408.05 256.55,408.05 256.55,391.95 243.45,391.95 241.95,393.45 241.95,406.55">
        <request index="0" response="000000000000" foes="100001000000" cont="0"/>
        <request index="1" response="011100000000" foes="011111000000" cont="0"/>
        <request index="2" response="011100000000" foes="011111000000" cont="0"/>
        <request index="3" response="010000110000" foes="010000110000" cont="1"/>
        <request index="4" response="010000000000" foes="010000001000" cont="0"/>
        <request index="5" response="010000000000" foes="010000001000" cont="0"/>
        <request index="6" response="010000000111" foes="110000000111" cont="1"/>
        <request index="7" response="001100000110" foes="001100000110" cont="1"/>
        <request index="8" response="000000000000" foes="000010000110" cont="0"/>
        <request index="9" response="000000000000" foes="000010000110" cont="0"/>
        <request index="10" response="000000000000" foes="000001111110" cont="0"/>
        <request index="11" response="000001000001" foes="000001000001" cont="1"/>
    </junction>
    <junction id="n3" type="priority" x="250.00" y="600.00" incLanes="5to3_0 5to3_1 2to3_0 2to3_1" intLanes=":n3_0_0 :n3_1_0 :n3_2_0 :n3_3_0 :n3_4_0 :n3_5_0" shape="256.55,606.55 256.55,593.45 243.45,593.45">