
<routes>
<vType vClass ="passenger" accel="1.0" decel="5.0" id="Car" length = "2.0" maxSpeed="100.0" sigma="0.0" />
<vType vClass ="rogue" accel="1.0" decel="5.0" id="Rogue" length="2.0" maxSpeed="100.0" sigma="0.0" />

<route id="route1" edges="1to2 2to3 3to5 5to7 7to9"/>

<vehicle depart="0" id="veh2" route="route1" type="Car" color = "205,133,63,255" />
<vehicle depart="20" id="veh3" route="route1" type="Car" />
<vehicle depart="30" id="veh1" route="route1" type="Rogue" color = "255,0,0,255"/>

<vehicle depart="40" id="veh4" route="route1" type="Car" />
<vehicle depart="50" id="veh5" route="route1" type="Car" />
<!--<route id="route2" edges="1to2 2to4 4to6 6to8 8to10"/>-->
<!--<vehicle depart="20" id="veh2" route="route2" type="Ambulance" />-->

<!--<route id="route3" edges="1to2 2to3 3to5 5to11 11to12"/>-->
<!--<vehicle depart="30" id="veh3" route="route3" type="Car" />-->

<!--<route id="route4" edges="1to2 2to4 4to6 6to11 11to12"/>-->
<!--<vehicle depart="40" id="veh4" route="route4" type="Car" />-->

</routes>

