<?xml version="1.0" encoding="UTF-8"?>
<!-- generated on 2019-03-05 06:06:52.415224 by $Id$
  options: -n eichstaett.xml -r eichstaett.rou.xml -e 50 -l
-->
<routes xmlns:xsi="http://www.w3.org/2001/XMLSchema-instance" xsi:noNamespaceSchemaLocation="http://sumo.dlr.de/xsd/routes_file.xsd">
</routes>
