 <edges>
 <edge from="n1" to="n2" id="1to2" type="3L45"/>
 <edge from="n2" to="n3" id="2to3" type="3L45"/>
 <edge from="n2" to="n4" id="2to4" type="3L45"/>
 <edge from="n3" to="n5" id="3to5" type="3L30"/>
 <edge from="n5" to="n7" id="5to7" type="3L30"/>
 <edge from="n5" to="n11" id="5to11" type="3L30"/>
 <edge from="n4" to="n6" id="4to6" type="3L30"/>
 <edge from="n6" to="n8" id="6to8" type="3L30"/>
 <edge from="n6" to="n11" id="6to11" type="3L30"/>
 <edge from="n7" to="n9" id="7to9" type="2L15"/>
 <edge from="n11" to="n12" id="11to12" type="2L15"/>
 <edge from="n8" to="n10" id="8to10" type="2L15"/>
 
 <edge from="n10" to="n12" id="10to12" type="2L15"/>
 <edge from="n9" to="n12" id="9to12" type="2L15"/>
 <edge from="n10" to="n13" id="10to13" type="2L15"/>
 <edge from="n13" to="n14" id="13to14" type="2L15"/>
 <edge from="n4" to="n14" id="4to14" type="2L15"/>
 <edge from="n9" to="n15" id="9to15" type="2L15"/>
 <edge from="n15" to="n16" id="15to16" type="2L15"/>
 <edge from="n3" to="n16" id="3to16" type="2L15"/>
 
 </edges>
