<?xml version="1.0" encoding="UTF-8"?>

<!-- generated on Mon Mar 11 01:57:59 2019 by SUMO polyconvert Version 0.32.0
<?xml version="1.0" encoding="UTF-8"?>

<configuration xmlns:xsi="http://www.w3.org/2001/XMLSchema-instance" xsi:noNamespaceSchemaLocation="http://sumo.dlr.de/xsd/polyconvertConfiguration.xsd">

    <input>
        <net-file value="cupertino.net.xml"/>
        <osm-files value="cupertino.osm"/>
        <type-file value="typemap.xml"/>
    </input>

    <output>
        <output-file value="cupertino.poly.xml"/>
    </output>

    <processing>
        <poi-layer-offset value="5"/>
    </processing>

</configuration>
-->

<additional xmlns:xsi="http://www.w3.org/2001/XMLSchema-instance" xsi:noNamespaceSchemaLocation="http://sumo.dlr.de/xsd/additional_file.xsd">
    <location netOffset="-584556.92,-4129696.03" convBoundary="-602.52,-846.54,4403.28,2669.62" origBoundary="-122.052335,37.302326,-121.996026,37.334077" projParameter="+proj=utm +zone=10 +ellps=WGS84 +datum=WGS84 +units=m +no_defs"/>

    <poly id="105819651" type="building" color="255,230,230" fill="1" layer="-1.00" shape="1952.28,1419.89 1966.35,1420.19 1966.85,1396.76 1952.78,1396.46 1952.28,1419.89"/>
    <poly id="105821024" type="amenity" color="237,199,199" fill="1" layer="-1.00" shape="1478.11,911.36 1522.52,912.10 1528.53,912.21 1528.92,850.45 1511.31,850.27 1511.15,853.59 1496.30,853.08 1495.88,847.27 1483.03,849.04 1482.84,853.19 1476.16,853.12 1475.39,887.66 1482.16,887.73 1482.34,893.53 1478.65,893.61 1478.11,911.36"/>
    <poly id="105821024#1" type="building" color="255,230,230" fill="1" layer="-1.00" shape="1478.11,911.36 1522.52,912.10 1528.53,912.21 1528.92,850.45 1511.31,850.27 1511.15,853.59 1496.30,853.08 1495.88,847.27 1483.03,849.04 1482.84,853.19 1476.16,853.12 1475.39,887.66 1482.16,887.73 1482.34,893.53 1478.65,893.61 1478.11,911.36"/>
    <poly id="105821025" type="building" color="255,230,230" fill="1" layer="-1.00" shape="1736.17,1512.37 1764.80,1512.67 1765.11,1482.74 1736.47,1482.44 1736.17,1512.37"/>
    <poly id="105821025#1" type="shop" color="237,199,255" fill="1" layer="-1.00" shape="1736.17,1512.37 1764.80,1512.67 1765.11,1482.74 1736.47,1482.44 1736.17,1512.37"/>
    <poly id="105821026" type="building" color="255,230,230" fill="1" layer="-1.00" shape="1786.18,1526.21 1821.11,1526.86 1822.06,1476.00 1787.13,1475.35 1786.18,1526.21"/>
    <poly id="105821028" type="building" color="255,230,230" fill="1" layer="-1.00" shape="1937.19,1509.29 1971.18,1509.57 1971.46,1476.21 1937.48,1475.92 1937.19,1509.29"/>
    <poly id="105821035" type="building" color="255,230,230" fill="1" layer="-1.00" shape="1625.94,1265.36 1655.83,1265.73 1655.80,1268.00 1665.60,1268.12 1665.62,1266.26 1674.20,1266.36 1683.02,1266.47 1693.12,1266.60 1693.22,1258.22 1698.57,1258.27 1698.50,1263.83 1701.11,1263.87 1701.24,1253.04 1694.63,1252.96 1694.73,1245.50 1702.02,1245.59 1701.99,1247.82 1710.78,1247.94 1710.81,1246.07 1730.92,1246.31 1730.67,1265.43 1707.66,1265.15 1707.52,1275.58 1709.68,1275.61 1709.60,1281.90 1747.93,1282.37 1748.59,1229.66 1702.18,1229.10 1702.27,1222.07 1670.26,1221.68 1670.08,1235.75 1660.78,1235.63 1660.62,1248.72 1644.34,1248.53 1644.57,1228.95 1659.75,1229.14 1659.97,1211.55 1649.61,1211.44 1649.59,1212.89 1626.59,1212.60 1625.94,1265.36"/>
    <poly id="105821037" type="amenity" color="237,199,199" fill="1" layer="-1.00" shape="1207.11,1299.43 1230.05,1299.78 1230.35,1280.26 1207.43,1279.90 1207.11,1299.43"/>
    <poly id="105821037#1" type="building" color="255,230,230" fill="1" layer="-1.00" shape="1207.11,1299.43 1230.05,1299.78 1230.35,1280.26 1207.43,1279.90 1207.11,1299.43"/>
    <poly id="105821038" type="amenity" color="237,199,199" fill="1" layer="-1.00" shape="1622.34,1519.00 1649.84,1519.21 1650.11,1508.27 1650.81,1478.74 1625.63,1477.77 1620.15,1478.19 1615.61,1480.75 1612.71,1484.74 1612.65,1490.65 1615.45,1495.90 1619.71,1498.54 1622.80,1498.33 1622.63,1505.98 1622.34,1519.00"/>
    <poly id="105821038#1" type="building" color="255,230,230" fill="1" layer="-1.00" shape="1622.34,1519.00 1649.84,1519.21 1650.11,1508.27 1650.81,1478.74 1625.63,1477.77 1620.15,1478.19 1615.61,1480.75 1612.71,1484.74 1612.65,1490.65 1615.45,1495.90 1619.71,1498.54 1622.80,1498.33 1622.63,1505.98 1622.34,1519.00"/>
    <poly id="105821039" type="building" color="255,230,230" fill="1" layer="-1.00" shape="1942.81,1550.94 1971.23,1551.15 1971.38,1531.51 1942.96,1531.31 1942.81,1550.94"/>
    <poly id="105821040" type="building" color="255,230,230" fill="1" layer="-1.00" shape="1946.94,1583.33 1961.07,1583.32 1961.06,1554.78 1946.92,1554.78 1946.94,1583.33"/>
    <poly id="105821042" type="building" color="255,230,230" fill="1" layer="-1.00" shape="1556.05,1491.31 1577.21,1491.77 1580.80,1488.73 1580.92,1477.38 1578.10,1473.80 1571.45,1473.73 1569.51,1476.78 1566.19,1476.98 1563.12,1473.88 1557.42,1473.58 1554.52,1476.43 1553.94,1488.69 1556.05,1491.31"/>
    <poly id="105821043" type="building" color="255,230,230" fill="1" layer="-1.00" shape="1918.06,1491.76 1926.26,1491.84 1926.49,1470.20 1918.28,1470.11 1918.06,1491.76"/>
    <poly id="105821044" type="building" color="255,230,230" fill="1" layer="-1.00" shape="1737.04,1549.46 1763.18,1549.73 1763.40,1527.84 1737.27,1527.57 1737.04,1549.46"/>
    <poly id="105821045" type="building" color="255,230,230" fill="1" layer="-1.00" shape="1870.67,1551.63 1913.41,1552.53 1913.84,1531.70 1871.11,1530.81 1870.67,1551.63"/>
    <poly id="105821046" type="building" color="255,230,230" fill="1" layer="-1.00" shape="1690.55,1525.41 1714.19,1525.57 1714.57,1472.68 1690.93,1472.52 1690.55,1525.41"/>
    <poly id="105821047" type="building" color="255,230,230" fill="1" layer="-1.00" shape="1509.99,1529.66 1526.86,1529.76 1527.19,1470.94 1510.32,1470.86 1509.99,1529.66"/>
    <poly id="105821048" type="parking" color="184,184,179" fill="1" layer="-1.00" shape="1243.64,1294.95 1261.22,1295.13 1261.75,1243.54 1244.17,1243.36 1243.64,1294.95"/>
    <poly id="105823526" type="building" color="255,230,230" fill="1" layer="-1.00" shape="1103.08,928.16 1118.60,928.35 1118.72,918.07 1103.22,917.88 1103.08,928.16"/>
    <poly id="105823526#1" type="shop" color="237,199,255" fill="1" layer="-1.00" shape="1103.08,928.16 1118.60,928.35 1118.72,918.07 1103.22,917.88 1103.08,928.16"/>
    <poly id="105823527" type="building" color="255,230,230" fill="1" layer="-1.00" shape="1094.85,959.93 1138.23,960.55 1138.42,946.48 1095.05,945.85 1094.85,959.93"/>
    <poly id="105823530" type="building" color="255,230,230" fill="1" layer="-1.00" shape="1110.13,1099.97 1141.73,1100.22 1141.95,1070.77 1120.86,1070.60 1120.96,1058.19 1109.14,1058.11 1109.04,1070.63 1110.35,1070.65 1110.13,1099.97"/>
    <poly id="105823531" type="amenity" color="237,199,199" fill="1" layer="-1.00" shape="1147.37,1408.42 1155.67,1400.31 1137.89,1382.23 1129.57,1390.34 1147.37,1408.42"/>
    <poly id="105823531#1" type="building" color="255,230,230" fill="1" layer="-1.00" shape="1147.37,1408.42 1155.67,1400.31 1137.89,1382.23 1129.57,1390.34 1147.37,1408.42"/>
    <poly id="105823532" type="amenity" color="237,199,199" fill="1" layer="-1.00" shape="721.43,1398.65 736.89,1398.72 737.01,1372.22 721.55,1372.15 721.43,1398.65"/>
    <poly id="105823532#1" type="building" color="255,230,230" fill="1" layer="-1.00" shape="721.43,1398.65 736.89,1398.72 737.01,1372.22 721.55,1372.15 721.43,1398.65"/>
    <poly id="105823533" type="amenity" color="237,199,199" fill="1" layer="-1.00" shape="751.56,1407.23 763.26,1407.58 763.39,1407.05 767.79,1407.09 767.87,1405.50 772.20,1405.54 772.06,1408.08 777.34,1408.13 777.51,1403.29 775.85,1403.21 776.20,1386.17 769.67,1386.11 769.68,1384.92 754.88,1384.77 754.74,1387.20 750.71,1387.03 750.35,1403.66 751.42,1403.73 751.56,1407.23"/>
    <poly id="105823533#1" type="building" color="255,230,230" fill="1" layer="-1.00" shape="751.56,1407.23 763.26,1407.58 763.39,1407.05 767.79,1407.09 767.87,1405.50 772.20,1405.54 772.06,1408.08 777.34,1408.13 777.51,1403.29 775.85,1403.21 776.20,1386.17 769.67,1386.11 769.68,1384.92 754.88,1384.77 754.74,1387.20 750.71,1387.03 750.35,1403.66 751.42,1403.73 751.56,1407.23"/>
    <poly id="105823534" type="building" color="255,230,230" fill="1" layer="-1.00" shape="1053.66,1413.49 1073.69,1413.72 1073.96,1390.77 1053.93,1390.54 1053.66,1413.49"/>
    <poly id="105823535" type="building" color="255,230,230" fill="1" layer="-1.00" shape="1121.42,1390.54 1133.66,1378.95 1128.49,1372.86 1116.25,1372.74 1116.01,1384.68 1121.42,1390.54"/>
    <poly id="105823536" type="parking" color="184,184,179" fill="1" layer="-1.00" shape="809.12,1415.48 935.08,1415.58 935.13,1410.37 955.75,1409.74 972.59,1410.03 994.18,1410.21 1044.22,1409.83 1044.47,1385.70 1083.67,1386.81 1084.34,1414.74 1108.58,1414.74 1109.76,1369.80 1161.80,1371.04 1162.53,1299.09 1149.23,1298.25 1148.81,1339.66 957.50,1338.18 957.81,1378.65 810.47,1376.20 809.12,1415.48"/>
    <poly id="105823537" type="building" color="255,230,230" fill="1" layer="-1.00" shape="1095.24,943.49 1114.24,943.94 1115.92,941.95 1138.78,942.48 1139.04,931.69 1095.54,930.68 1095.24,943.49"/>
    <poly id="105823538" type="building" color="255,230,230" fill="1" layer="-1.00" shape="641.61,1370.81 685.08,1370.77 685.06,1354.91 682.70,1354.91 682.66,1324.58 679.37,1324.58 679.36,1318.39 682.77,1318.39 682.76,1311.84 642.61,1311.87 642.62,1316.98 636.04,1316.98 636.09,1365.77 641.61,1365.76 641.61,1370.81"/>
    <poly id="105823538#1" type="shop" color="237,199,255" fill="1" layer="-1.00" shape="641.61,1370.81 685.08,1370.77 685.06,1354.91 682.70,1354.91 682.66,1324.58 679.37,1324.58 679.36,1318.39 682.77,1318.39 682.76,1311.84 642.61,1311.87 642.62,1316.98 636.04,1316.98 636.09,1365.77 641.61,1365.76 641.61,1370.81"/>
    <poly id="105823539" type="building" color="255,230,230" fill="1" layer="-1.00" shape="1127.37,1111.06 1142.05,1111.26 1142.16,1102.26 1127.49,1102.08 1127.37,1111.06"/>
    <poly id="105823540" type="building" color="255,230,230" fill="1" layer="-1.00" shape="1143.86,1283.36 1155.34,1283.44 1155.38,1277.55 1160.29,1277.59 1160.47,1253.57 1155.87,1253.53 1155.92,1248.70 1121.04,1248.43 1121.02,1251.10 1117.43,1251.07 1117.33,1265.03 1123.01,1265.07 1122.91,1276.23 1143.93,1276.40 1143.86,1283.36"/>
    <poly id="105823542" type="building" color="255,230,230" fill="1" layer="-1.00" shape="1118.72,1122.79 1142.07,1123.11 1142.21,1112.76 1118.86,1112.44 1118.72,1122.79"/>
    <poly id="105823774" type="building" color="255,230,230" fill="1" layer="-1.00" shape="643.36,1473.87 684.68,1473.84 684.68,1464.76 689.14,1464.76 689.14,1454.51 678.37,1454.52 678.37,1457.15 654.74,1457.17 654.74,1455.26 643.35,1455.27 643.36,1473.87"/>
    <poly id="105823775" type="building" color="255,230,230" fill="1" layer="-1.00" shape="580.05,1503.07 609.76,1503.37 610.10,1469.53 615.62,1464.39 615.75,1455.12 576.54,1454.56 576.40,1464.23 580.39,1468.99 580.05,1503.07"/>
    <poly id="105823777" type="building" color="255,230,230" fill="1" layer="-1.00" shape="1082.71,1486.27 1120.37,1486.73 1120.63,1466.40 1082.96,1465.93 1082.71,1486.27"/>
    <poly id="105823778" type="building" color="255,230,230" fill="1" layer="-1.00" shape="796.14,1548.02 796.15,1646.61 801.42,1646.62 801.42,1670.89 835.15,1670.89 908.50,1670.89 908.50,1653.53 894.98,1647.79 895.60,1549.63 866.90,1549.45 863.81,1548.02 796.14,1548.02"/>
    <poly id="105823778#1" type="shop" color="237,199,255" fill="1" layer="-1.00" shape="796.14,1548.02 796.15,1646.61 801.42,1646.62 801.42,1670.89 835.15,1670.89 908.50,1670.89 908.50,1653.53 894.98,1647.79 895.60,1549.63 866.90,1549.45 863.81,1548.02 796.14,1548.02"/>
    <poly id="105823780" type="building" color="255,230,230" fill="1" layer="-1.00" shape="1019.70,1656.72 1090.99,1657.71 1091.27,1637.27 1106.07,1637.47 1106.45,1610.45 1092.40,1610.25 1092.42,1608.25 1077.68,1608.04 1077.70,1606.06 1038.88,1605.53 1038.86,1607.44 1020.14,1607.18 1020.11,1608.79 1000.09,1608.51 999.94,1618.77 1001.50,1618.78 1001.42,1625.23 1002.85,1625.24 1002.76,1631.74 1004.32,1631.76 1004.23,1638.36 1006.15,1638.39 1006.06,1644.88 1007.74,1644.91 1007.66,1651.16 1019.78,1651.34 1019.70,1656.72"/>
    <poly id="105823781" type="building" color="255,230,230" fill="1" layer="-1.00" shape="555.25,1390.32 567.81,1390.48 568.07,1369.58 572.36,1369.63 572.47,1361.45 569.02,1361.41 569.14,1352.27 555.59,1352.10 555.48,1360.13 550.73,1360.07 550.62,1368.92 555.52,1368.98 555.25,1390.32"/>
    <poly id="105823782" type="amenity" color="237,199,199" fill="1" layer="-1.00" shape="958.59,1642.27 979.65,1631.16 968.65,1610.49 947.61,1621.59 958.59,1642.27"/>
    <poly id="105823782#1" type="building" color="255,230,230" fill="1" layer="-1.00" shape="958.59,1642.27 979.65,1631.16 968.65,1610.49 947.61,1621.59 958.59,1642.27"/>
    <poly id="105823784" type="amenity" color="237,199,199" fill="1" layer="-1.00" shape="447.61,1405.32 459.61,1405.40 459.72,1386.94 447.73,1386.86 447.61,1405.32"/>
    <poly id="105823784#1" type="building" color="255,230,230" fill="1" layer="-1.00" shape="447.61,1405.32 459.61,1405.40 459.72,1386.94 447.73,1386.86 447.61,1405.32"/>
    <poly id="105823785" type="building" color="255,230,230" fill="1" layer="-1.00" shape="1126.35,1512.38 1140.71,1513.06 1151.63,1505.27 1151.72,1470.99 1139.69,1462.83 1126.61,1462.93 1126.35,1512.38"/>
    <poly id="105823786" type="building" color="255,230,230" fill="1" layer="-1.00" shape="1093.99,1559.78 1125.60,1559.39 1133.27,1554.26 1133.42,1539.36 1125.16,1533.82 1084.29,1533.17 1084.08,1553.04 1093.99,1559.78"/>
    <poly id="105823787" type="amenity" color="237,199,199" fill="1" layer="-1.00" shape="1016.85,1495.90 1028.31,1496.04 1028.22,1503.29 1036.65,1503.38 1036.74,1496.23 1054.03,1496.43 1054.13,1488.44 1056.67,1488.48 1056.72,1484.40 1054.18,1484.37 1054.30,1474.45 1020.36,1474.04 1020.34,1476.37 1017.09,1476.32 1016.85,1495.90"/>
    <poly id="105823787#1" type="building" color="255,230,230" fill="1" layer="-1.00" shape="1016.85,1495.90 1028.31,1496.04 1028.22,1503.29 1036.65,1503.38 1036.74,1496.23 1054.03,1496.43 1054.13,1488.44 1056.67,1488.48 1056.72,1484.40 1054.18,1484.37 1054.30,1474.45 1020.36,1474.04 1020.34,1476.37 1017.09,1476.32 1016.85,1495.90"/>
    <poly id="105823788" type="parking" color="184,184,179" fill="1" layer="-1.00" shape="748.06,1668.31 795.59,1668.09 796.98,1532.03 882.31,1532.19 894.16,1511.71 894.60,1451.80 792.27,1452.20 760.81,1451.96 753.37,1453.47 749.60,1457.58 748.64,1494.85 748.06,1668.31"/>
    <poly id="105823789" type="amenity" color="237,199,199" fill="1" layer="-1.00" shape="955.46,1493.80 981.04,1494.10 981.44,1461.03 955.86,1460.72 955.46,1493.80"/>
    <poly id="105823789#1" type="building" color="255,230,230" fill="1" layer="-1.00" shape="955.46,1493.80 981.04,1494.10 981.44,1461.03 955.86,1460.72 955.46,1493.80"/>
    <poly id="105823790" type="building" color="255,230,230" fill="1" layer="-1.00" shape="412.26,1401.92 416.60,1397.48 416.82,1385.50 399.28,1385.18 399.42,1377.80 389.93,1377.63 385.56,1381.67 385.26,1397.06 389.56,1401.49 412.26,1401.92"/>
    <poly id="105823791" type="amenity" color="237,199,199" fill="1" layer="-1.00" shape="1135.38,1629.97 1153.31,1629.94 1153.27,1602.04 1142.21,1602.05 1142.22,1604.80 1132.35,1604.82 1132.38,1625.35 1135.37,1625.35 1135.38,1629.97"/>
    <poly id="105823791#1" type="building" color="255,230,230" fill="1" layer="-1.00" shape="1135.38,1629.97 1153.31,1629.94 1153.27,1602.04 1142.21,1602.05 1142.22,1604.80 1132.35,1604.82 1132.38,1625.35 1135.37,1625.35 1135.38,1629.97"/>
    <poly id="105823792" type="building" color="255,230,230" fill="1" layer="-1.00" shape="888.14,1524.36 899.05,1534.03 903.39,1529.17 916.46,1529.31 916.55,1519.61 919.66,1519.64 920.14,1471.84 923.82,1468.32 913.38,1457.50 901.80,1468.57 904.36,1471.23 896.30,1478.94 897.85,1513.50 888.14,1524.36"/>
    <poly id="105823793" type="building" color="255,230,230" fill="1" layer="-1.00" shape="542.78,1342.83 554.25,1342.84 554.25,1319.58 542.78,1319.59 542.78,1342.83"/>
    <poly id="105823795" type="building" color="255,230,230" fill="1" layer="-1.00" shape="570.69,1343.02 583.52,1343.11 583.70,1318.03 570.87,1317.93 570.69,1343.02"/>
    <poly id="105823796" type="building" color="255,230,230" fill="1" layer="-1.00" shape="595.57,1352.29 625.27,1352.69 625.60,1328.26 595.90,1327.86 595.57,1352.29"/>
    <poly id="105823798" type="building" color="255,230,230" fill="1" layer="-1.00" shape="478.86,1393.05 501.42,1393.42 501.58,1383.77 481.40,1383.43 481.55,1374.42 501.88,1374.76 502.06,1363.98 479.36,1363.60 478.86,1393.05"/>
    <poly id="105823799" type="building" color="255,230,230" fill="1" layer="-1.00" shape="552.81,1317.44 565.22,1317.81 565.48,1309.18 553.07,1308.81 552.81,1317.44"/>
    <poly id="105884685" type="building" color="255,230,230" fill="1" layer="-1.00" shape="555.93,1645.41 565.83,1645.73 566.33,1630.09 554.01,1629.69 554.20,1623.90 546.20,1623.64 545.66,1640.23 552.00,1640.43 552.04,1639.11 556.13,1639.24 555.93,1645.41"/>
    <poly id="105884687" type="building" color="255,230,230" fill="1" layer="-1.00" shape="654.78,1622.65 687.36,1622.77 687.44,1600.79 677.30,1600.75 677.33,1594.79 687.47,1594.83 687.59,1560.99 655.64,1560.88 655.54,1584.94 673.10,1585.00 673.06,1592.90 654.89,1592.83 654.78,1622.65"/>
    <poly id="105884689" type="parking" color="184,184,179" fill="1" layer="-1.00" shape="388.24,1566.71 508.56,1567.91 508.48,1552.77 488.99,1552.57 489.51,1524.41 499.74,1524.28 500.61,1484.77 487.78,1484.64 487.40,1452.45 437.00,1453.12 438.12,1459.28 430.99,1459.69 431.16,1489.75 388.86,1489.78 389.12,1507.35 384.42,1507.26 384.21,1550.33 388.48,1551.08 388.24,1566.71"/>
    <poly id="105884691" type="building" color="255,230,230" fill="1" layer="-1.00" shape="686.88,1701.32 699.31,1694.34 712.31,1700.87 711.68,1716.70 715.69,1720.05 719.03,1717.72 726.13,1721.10 725.58,1728.68 721.50,1731.95 721.57,1748.98 699.57,1761.78 711.33,1761.85 711.23,1777.13 716.92,1777.16 716.82,1792.24 677.73,1791.99 677.88,1768.42 671.28,1763.62 678.94,1758.01 678.74,1754.23 672.12,1750.85 671.95,1743.51 676.50,1740.48 675.74,1721.78 679.35,1717.79 683.83,1719.96 688.15,1716.46 686.88,1701.32"/>
    <poly id="105884691#1" type="leisure" color="207,245,201" fill="1" layer="-2.00" shape="686.88,1701.32 699.31,1694.34 712.31,1700.87 711.68,1716.70 715.69,1720.05 719.03,1717.72 726.13,1721.10 725.58,1728.68 721.50,1731.95 721.57,1748.98 699.57,1761.78 711.33,1761.85 711.23,1777.13 716.92,1777.16 716.82,1792.24 677.73,1791.99 677.88,1768.42 671.28,1763.62 678.94,1758.01 678.74,1754.23 672.12,1750.85 671.95,1743.51 676.50,1740.48 675.74,1721.78 679.35,1717.79 683.83,1719.96 688.15,1716.46 686.88,1701.32"/>
    <poly id="105884693" type="building" color="255,230,230" fill="1" layer="-1.00" shape="695.52,1649.54 725.17,1649.96 725.61,1618.19 695.97,1617.77 695.52,1649.54"/>
    <poly id="105884700" type="amenity" color="237,199,199" fill="1" layer="-1.00" shape="405.61,1477.05 411.07,1477.10 413.49,1472.87 410.69,1468.22 413.95,1463.53 411.26,1458.89 414.04,1454.89 411.11,1450.37 405.88,1450.19 402.87,1454.07 405.92,1458.36 402.54,1463.42 405.94,1467.94 402.68,1472.53 405.61,1477.05"/>
    <poly id="105884700#1" type="building" color="255,230,230" fill="1" layer="-1.00" shape="405.61,1477.05 411.07,1477.10 413.49,1472.87 410.69,1468.22 413.95,1463.53 411.26,1458.89 414.04,1454.89 411.11,1450.37 405.88,1450.19 402.87,1454.07 405.92,1458.36 402.54,1463.42 405.94,1467.94 402.68,1472.53 405.61,1477.05"/>
    <poly id="105884708" type="building" color="255,230,230" fill="1" layer="-1.00" shape="651.00,1665.58 689.64,1665.51 689.62,1654.24 684.56,1649.46 684.75,1627.25 656.47,1627.00 656.28,1648.94 650.98,1654.80 651.00,1665.58"/>
    <poly id="105884709" type="building" color="255,230,230" fill="1" layer="-1.00" shape="657.39,1552.74 685.67,1552.92 686.01,1530.43 690.94,1525.51 691.05,1514.75 653.38,1514.01 652.91,1524.89 657.73,1530.03 657.39,1552.74"/>
    <poly id="105884711" type="building" color="255,230,230" fill="1" layer="-1.00" shape="693.41,1816.52 722.40,1817.02 722.80,1793.71 693.81,1793.22 693.41,1816.52"/>
    <poly id="105884717" type="building" color="255,230,230" fill="1" layer="-1.00" shape="509.43,1563.82 568.14,1564.16 568.76,1455.31 506.33,1454.95 506.14,1487.58 509.25,1487.59 509.08,1517.26 505.04,1517.24 497.25,1535.38 497.13,1548.86 509.52,1548.93 509.43,1563.82"/>
    <poly id="105884717#1" type="shop" color="237,199,255" fill="1" layer="-1.00" shape="509.43,1563.82 568.14,1564.16 568.76,1455.31 506.33,1454.95 506.14,1487.58 509.25,1487.59 509.08,1517.26 505.04,1517.24 497.25,1535.38 497.13,1548.86 509.52,1548.93 509.43,1563.82"/>
    <poly id="105884719" type="building" color="255,230,230" fill="1" layer="-1.00" shape="599.39,1639.48 631.99,1639.74 632.36,1592.57 613.55,1592.43 613.60,1584.97 633.31,1585.13 633.71,1533.15 622.27,1533.06 622.29,1531.12 633.41,1531.20 633.54,1514.79 597.25,1514.51 597.12,1531.14 610.92,1531.25 610.89,1534.14 600.21,1534.06 599.39,1639.48"/>
    <poly id="105884725" type="amenity" color="237,199,199" fill="1" layer="-1.00" shape="404.70,1484.07 404.67,1487.78 415.68,1487.89 415.72,1484.20 404.70,1484.07"/>
    <poly id="105884725#1" type="building" color="255,230,230" fill="1" layer="-1.00" shape="404.70,1484.07 404.67,1487.78 415.68,1487.89 415.72,1484.20 404.70,1484.07"/>
    <poly id="105884728" type="building" color="255,230,230" fill="1" layer="-1.00" shape="489.83,1634.92 507.18,1635.13 507.69,1593.37 490.34,1593.16 489.83,1634.92"/>
    <poly id="105884729" type="building" color="255,230,230" fill="1" layer="-1.00" shape="449.35,1634.83 486.07,1635.43 486.41,1614.60 476.00,1614.43 475.93,1618.44 449.62,1618.01 449.35,1634.83"/>
    <poly id="105886086" type="building" color="255,230,230" fill="1" layer="-1.00" shape="1249.82,1605.62 1269.12,1606.00 1269.39,1592.63 1250.08,1592.26 1249.82,1605.62"/>
    <poly id="105886088" type="building" color="255,230,230" fill="1" layer="-1.00" shape="1292.21,1371.89 1292.86,1349.17 1284.64,1348.94 1283.94,1348.20 1280.96,1348.12 1279.29,1350.03 1278.95,1351.75 1274.41,1351.67 1274.30,1357.86 1267.66,1357.74 1266.91,1400.65 1269.39,1400.70 1267.58,1402.44 1267.52,1405.86 1269.85,1408.27 1273.42,1408.33 1274.67,1407.65 1275.60,1407.66 1275.58,1408.65 1284.20,1408.81 1284.22,1407.81 1287.61,1407.87 1290.61,1407.92 1290.59,1408.88 1300.05,1409.04 1300.04,1409.52 1307.53,1409.65 1307.57,1407.03 1329.74,1407.41 1329.69,1410.06 1339.68,1410.23 1340.20,1380.56 1330.20,1380.39 1330.17,1382.50 1308.01,1382.11 1308.05,1379.30 1302.40,1379.19 1302.36,1381.63 1297.27,1381.54 1297.15,1388.87 1289.57,1388.75 1289.48,1394.12 1282.01,1393.99 1282.14,1386.91 1291.94,1387.08 1292.18,1373.93 1286.26,1373.82 1286.30,1371.78 1292.21,1371.89"/>
    <poly id="105886090" type="amenity" color="237,199,199" fill="1" layer="-1.00" shape="1218.91,1482.49 1227.29,1474.27 1219.20,1466.11 1210.82,1474.33 1218.91,1482.49"/>
    <poly id="105886090#1" type="building" color="255,230,230" fill="1" layer="-1.00" shape="1218.91,1482.49 1227.29,1474.27 1219.20,1466.11 1210.82,1474.33 1218.91,1482.49"/>
    <poly id="105886091" type="building" color="255,230,230" fill="1" layer="-1.00" shape="1325.96,1504.70 1356.25,1505.44 1356.86,1480.19 1326.57,1479.46 1325.96,1504.70"/>
    <poly id="105886093" type="amenity" color="237,199,199" fill="1" layer="-1.00" shape="1230.83,1636.44 1268.44,1636.92 1268.66,1619.54 1265.46,1619.51 1265.47,1618.43 1262.75,1618.41 1262.85,1610.56 1250.24,1610.41 1250.15,1617.96 1231.09,1617.73 1231.04,1621.13 1228.53,1621.11 1228.38,1632.96 1230.87,1632.99 1230.83,1636.44"/>
    <poly id="105886093#1" type="building" color="255,230,230" fill="1" layer="-1.00" shape="1230.83,1636.44 1268.44,1636.92 1268.66,1619.54 1265.46,1619.51 1265.47,1618.43 1262.75,1618.41 1262.85,1610.56 1250.24,1610.41 1250.15,1617.96 1231.09,1617.73 1231.04,1621.13 1228.53,1621.11 1228.38,1632.96 1230.87,1632.99 1230.83,1636.44"/>
    <poly id="105886096" type="building" color="255,230,230" fill="1" layer="-1.00" shape="1355.52,1525.19 1454.02,1526.52 1454.41,1499.55 1432.91,1499.10 1427.50,1504.48 1394.24,1503.67 1392.79,1505.30 1384.60,1504.98 1384.44,1508.30 1356.17,1507.77 1355.52,1525.19"/>
    <poly id="105886098" type="building" color="255,230,230" fill="1" layer="-1.00" shape="1346.68,1409.49 1346.90,1394.66 1349.94,1394.72 1350.44,1361.60 1314.51,1361.05 1314.45,1365.14 1298.45,1364.90 1298.84,1339.02 1373.76,1340.17 1372.70,1409.90 1346.68,1409.49"/>
    <poly id="105886101" type="building" color="255,230,230" fill="1" layer="-1.00" shape="1215.69,1499.46 1232.20,1499.63 1232.31,1495.84 1232.56,1487.45 1234.96,1485.22 1235.01,1480.84 1231.12,1477.25 1221.63,1487.09 1221.71,1491.23 1216.00,1491.17 1215.84,1495.44 1215.69,1499.46"/>
    <poly id="105886102" type="building" color="255,230,230" fill="1" layer="-1.00" shape="1227.89,1565.37 1248.74,1565.69 1249.07,1545.06 1241.63,1544.94 1241.93,1525.17 1214.20,1524.74 1213.75,1553.61 1228.07,1553.83 1227.89,1565.37"/>
    <poly id="105886103" type="building" color="255,230,230" fill="1" layer="-1.00" shape="965.33,1574.35 983.07,1574.72 983.66,1546.78 965.93,1546.41 965.33,1574.35"/>
    <poly id="105890650" type="building" color="255,230,230" fill="1" layer="-1.00" shape="1287.42,767.72 1297.66,767.82 1297.91,743.36 1291.95,743.30 1291.97,741.11 1297.91,741.17 1298.09,722.56 1292.72,722.51 1292.74,720.72 1298.40,720.78 1298.53,708.56 1276.19,708.35 1276.09,719.12 1287.90,719.24 1287.42,767.72"/>
    <poly id="105890652" type="building" color="255,230,230" fill="1" layer="-1.00" shape="1408.25,793.33 1435.30,793.52 1435.31,791.36 1439.90,791.39 1439.99,777.52 1436.34,777.49 1436.36,775.25 1408.64,775.07 1408.62,777.66 1403.58,777.63 1403.48,791.06 1408.26,791.10 1408.25,793.33"/>
    <poly id="105890654" type="building" color="255,230,230" fill="1" layer="-1.00" shape="1404.34,771.98 1441.30,772.32 1441.46,754.21 1404.50,753.88 1404.34,771.98"/>
    <poly id="105890655" type="building" color="255,230,230" fill="1" layer="-1.00" shape="1411.77,730.25 1438.69,730.56 1438.77,723.56 1437.58,723.54 1437.64,718.72 1438.83,718.74 1438.90,711.79 1433.05,711.73 1433.04,712.63 1430.15,712.60 1430.16,711.69 1420.32,711.58 1420.31,712.50 1417.60,712.47 1417.61,711.55 1407.92,711.44 1407.90,712.68 1405.18,712.65 1405.04,724.50 1411.83,724.58 1411.77,730.25"/>
    <poly id="105890656" type="building" color="255,230,230" fill="1" layer="-1.00" shape="1218.19,920.71 1234.44,920.75 1234.48,904.65 1236.88,904.65 1236.90,896.92 1238.67,896.93 1238.73,882.42 1237.16,882.41 1237.20,874.53 1235.76,874.53 1235.79,871.35 1229.59,871.30 1229.60,869.43 1241.24,869.54 1241.16,879.11 1252.80,879.22 1252.77,882.66 1266.86,882.79 1266.89,879.59 1278.65,879.72 1278.76,870.26 1290.05,870.38 1290.04,871.44 1284.89,871.36 1284.83,874.87 1283.64,874.84 1283.52,882.48 1281.10,882.43 1280.86,896.68 1284.61,896.76 1284.42,907.93 1291.83,908.05 1291.77,912.21 1277.91,911.99 1278.08,901.88 1266.73,901.71 1266.78,898.38 1254.49,898.20 1254.46,900.91 1241.10,900.74 1240.83,921.59 1277.26,922.06 1277.27,920.99 1287.12,921.08 1287.11,922.84 1302.25,922.94 1302.27,918.91 1307.12,918.93 1307.40,862.98 1302.98,862.97 1303.00,858.14 1248.40,857.93 1218.89,857.82 1218.88,861.16 1214.40,861.14 1214.25,916.24 1218.20,916.25 1218.19,920.71"/>
    <poly id="105890659" type="building" color="255,230,230" fill="1" layer="-1.00" shape="1417.98,963.69 1436.26,963.75 1436.29,956.84 1438.20,955.09 1438.48,951.77 1435.65,949.38 1433.28,949.23 1431.12,950.98 1431.11,952.55 1418.02,952.49 1417.98,963.69"/>
    <poly id="105890660" type="building" color="255,230,230" fill="1" layer="-1.00" shape="1210.84,964.98 1247.08,965.15 1247.17,946.52 1210.93,946.34 1210.84,964.98"/>
    <poly id="105890661" type="building" color="255,230,230" fill="1" layer="-1.00" shape="1267.09,835.54 1306.18,836.01 1306.71,791.63 1267.61,791.16 1267.09,835.54"/>
    <poly id="105890665" type="building" color="255,230,230" fill="1" layer="-1.00" shape="1354.43,709.92 1379.21,710.22 1378.58,763.29 1353.81,763.00 1354.43,709.92"/>
    <poly id="105890667" type="building" color="255,230,230" fill="1" layer="-1.00" shape="1210.37,1025.89 1229.73,1026.20 1229.76,1024.66 1232.63,1024.71 1233.19,990.26 1231.07,990.23 1231.09,988.46 1210.99,988.13 1210.37,1025.89"/>
    <poly id="105890669" type="building" color="255,230,230" fill="1" layer="-1.00" shape="1358.44,835.51 1372.07,835.77 1372.11,833.50 1376.69,833.59 1376.91,822.39 1372.30,822.29 1372.35,819.99 1358.78,819.71 1358.73,822.20 1354.23,822.11 1354.01,833.16 1358.49,833.25 1358.44,835.51"/>
    <poly id="105890671" type="building" color="255,230,230" fill="1" layer="-1.00" shape="1211.44,1091.26 1233.27,1091.36 1233.42,1054.71 1216.41,1054.64 1216.41,1056.08 1211.59,1056.06 1211.44,1091.26"/>
    <poly id="105890674" type="building" color="255,230,230" fill="1" layer="-1.00" shape="1213.36,826.48 1246.57,826.77 1246.78,802.99 1213.57,802.69 1213.36,826.48"/>
    <poly id="105890675" type="building" color="255,230,230" fill="1" layer="-1.00" shape="1406.39,837.51 1435.24,837.78 1435.26,835.61 1439.50,835.64 1439.62,822.09 1435.95,822.05 1435.97,819.66 1406.32,819.39 1406.28,823.91 1401.86,823.86 1401.79,832.27 1406.45,832.32 1406.39,837.51"/>
    <poly id="105890678" type="building" color="255,230,230" fill="1" layer="-1.00" shape="1359.09,800.20 1371.63,800.43 1371.67,798.20 1376.88,798.30 1377.20,780.25 1372.88,780.17 1372.92,778.14 1359.08,777.90 1359.05,779.75 1354.84,779.67 1354.52,797.93 1359.12,798.02 1359.09,800.20"/>
    <poly id="105890679" type="building" color="255,230,230" fill="1" layer="-1.00" shape="1224.06,741.05 1231.84,741.11 1231.90,733.04 1242.34,733.13 1242.53,709.09 1217.30,708.88 1217.10,732.14 1224.12,732.20 1224.06,741.05"/>