 <edges>
 
 <edge from="n1r" to="n2u" id="1to2" type="2L45"/>
 <edge from="n2d" to="n1l" id="2to1" type="2L45"/>
 
 <edge from="n2u" to="n3r" id="2to3" type="2L5"/>
 <edge from="n3l" to="n2d" id="3to2" type="2L5"/>
 
 <edge from="n2d" to="n4r" id="2to4" type="2L5"/>
 <edge from="n4l" to="n2u" id="4to2" type="2L5"/>
 
 <edge from="n3r" to="n5d" id="3to5" type="2L30"/>
 <edge from="n5u" to="n3l" id="5to3" type="2L30"/>
 
 <edge from="n5u" to="n7" id="5to7" type="2L30"/>
 <!--<edge from="n7" to="n5" id="7to5" type="2L30"/>-->
 
 <edge from="n5d" to="n11d" id="5to11" type="2L30"/>
 <edge from="n11u" to="n5u" id="11to5" type="2L30"/>
 
 <edge from="n4r" to="n6u" id="4to6" type="2L30"/>
 <edge from="n6d" to="n4l" id="6to4" type="2L30"/>
 
 <edge from="n6u" to="n8" id="6to8" type="2L30"/>
 <!--<edge from="n8" to="n6" id="8to6" type="2L30"/>-->
 
 <edge from="n6u" to="n11u" id="6to11" type="2L30"/>
 <edge from="n11d" to="n6d" id="11to6" type="2L30"/>
 
 <edge from="n7" to="n9" id="7to9" type="2L30"/>
 <!--<edge from="n9" to="n7" id="9to7" type="2L30"/>-->
 
 <edge from="n11u" to="n12" id="11to12" type="2L30"/>
 <!--<edge from="n12" to="n11" id="12to11" type="2L30"/>-->
 
 <edge from="n8" to="n10" id="8to10" type="2L30"/>
 <!--<edge from="n10" to="n8" id="10to8" type="2L30"/>-->
 
 </edges>

