<?xml version="1.0" encoding="UTF-8"?>
<!-- generated on 2019-03-11 01:58:10.344114 by $Id$ via randomTrips.py
  options: -n cupertino.net.xml -r cupertino.rou.xml -e 100 -l <doubleminus>validate
-->
<routes xmlns:xsi="http://www.w3.org/2001/XMLSchema-instance" xsi:noNamespaceSchemaLocation="http://sumo.dlr.de/xsd/routes_file.xsd">
    <trip id="0" depart="0.00" from="-8937316" to="317693323#2"/>
    <trip id="1" depart="1.00" from="-8941688" to="499994191#2"/>
    <trip id="2" depart="2.00" from="122023538" to="317693327#0"/>
    <trip id="3" depart="3.00" from="8950615#1" to="-614365187#0"/>
    <trip id="4" depart="4.00" from="-614365187#0" to="8931230"/>
    <trip id="5" depart="5.00" from="239363039" to="8941244#4"/>
    <trip id="6" depart="6.00" from="317693323#2" to="-8970303"/>
    <trip id="7" depart="7.00" from="8929064#1" to="-8965833"/>
    <trip id="8" depart="8.00" from="167372796" to="614308044#1"/>
    <trip id="9" depart="9.00" from="8961428" to="8964651"/>
    <trip id="10" depart="10.00" from="-8945826#2" to="-8958285"/>
    <trip id="12" depart="12.00" from="8949535#0" to="8949535#4"/>
    <trip id="13" depart="13.00" from="-8957791#3" to="8963319#1"/>
    <trip id="14" depart="14.00" from="-425181551#2" to="8950615#1"/>
    <trip id="15" depart="15.00" from="-500206570#1" to="-8957766#0"/>
    <trip id="16" depart="16.00" from="8933723" to="521808595#0"/>
    <trip id="17" depart="17.00" from="-52380580" to="291249031"/>
    <trip id="18" depart="18.00" from="-196622920#4" to="593271063#5"/>
    <trip id="19" depart="19.00" from="-8937839" to="-516209131#0"/>
    <trip id="20" depart="20.00" from="317693328#1" to="-502912967#0"/>
    <trip id="21" depart="21.00" from="-614365187#0" to="8923342#0"/>
    <trip id="22" depart="22.00" from="367054416" to="425181546#6"/>
    <trip id="23" depart="23.00" from="8957641#1" to="-52380561#6"/>
    <trip id="24" depart="24.00" from="500264959#6" to="8947392"/>
    <trip id="25" depart="25.00" from="593271049#0" to="-413371804#1"/>
    <trip id="26" depart="26.00" from="8957791#8" to="8929064#4"/>
    <trip id="27" depart="27.00" from="8928339#1" to="25085669#1"/>
    <trip id="28" depart="28.00" from="8950374#1" to="-8950374#0"/>
    <trip id="29" depart="29.00" from="500268051#2" to="8941244#4"/>
    <trip id="30" depart="30.00" from="516208799#1" to="-425181551#4"/>
    <trip id="31" depart="31.00" from="413371804#1" to="8949535#3"/>
    <trip id="32" depart="32.00" from="614308044#1" to="8951752#1"/>
    <trip id="33" depart="33.00" from="-8950374#1" to="-8958285"/>
    <trip id="34" depart="34.00" from="8945826#2" to="413371803#0"/>
    <trip id="35" depart="35.00" from="-614308044#1" to="8957766#1"/>
    <trip id="36" depart="36.00" from="-614308044#0" to="593271044#0"/>
    <trip id="37" depart="37.00" from="-8937839" to="-8964427#1"/>
    <trip id="38" depart="38.00" from="-8947529" to="413371806#1"/>
    <trip id="39" depart="39.00" from="8949535#0" to="8933725"/>
    <trip id="40" depart="40.00" from="-425181551#5" to="-8928339#8"/>
    <trip id="41" depart="41.00" from="8928339#1" to="287163353#1"/>
    <trip id="42" depart="42.00" from="-8937316" to="239362319#0"/>
    <trip id="43" depart="43.00" from="-8950615#0" to="287163354#2"/>
    <trip id="44" depart="44.00" from="8951752#4" to="417028432#1"/>
    <trip id="45" depart="45.00" from="-8957641#0" to="506499370#4"/>
    <trip id="46" depart="46.00" from="417001460#0" to="-516209131#1"/>
    <trip id="47" depart="47.00" from="291249031" to="-8950374#1"/>
    <trip id="48" depart="48.00" from="-8957791#5" to="-8928339#6"/>
    <trip id="49" depart="49.00" from="8923342#1" to="499994191#2"/>
    <trip id="50" depart="50.00" from="-255623351#1" to="8960603#1"/>
    <trip id="51" depart="51.00" from="8933725" to="-52380561#1"/>
    <trip id="52" depart="52.00" from="-8929064#0" to="-8937316"/>
    <trip id="53" depart="53.00" from="413371806#1" to="-8957641#0"/>
    <trip id="54" depart="54.00" from="8961428" to="393494135#0"/>
    <trip id="55" depart="55.00" from="-8928339#0" to="-8968173"/>
    <trip id="56" depart="56.00" from="-614365185#1" to="-8957641#0"/>
    <trip id="57" depart="57.00" from="198990388#2" to="-425181551#1"/>
    <trip id="58" depart="58.00" from="167372796" to="417028453#1"/>
    <trip id="59" depart="59.00" from="-8937839" to="516209131#1"/>
    <trip id="60" depart="60.00" from="-614365187#0" to="-287163332#2"/>
    <trip id="61" depart="61.00" from="614308044#1" to="-8957791#12"/>
    <trip id="62" depart="62.00" from="8950374#0" to="198990388#2"/>
    <trip id="63" depart="63.00" from="287163330#0" to="516208799#1"/>
    <trip id="64" depart="64.00" from="-8957791#4" to="8965171"/>
    <trip id="65" depart="65.00" from="-8947440#0" to="393494142#2"/>
    <trip id="66" depart="66.00" from="25085669#1" to="-334521370#7"/>
    <trip id="67" depart="67.00" from="-500264960" to="367054416"/>
    <trip id="68" depart="68.00" from="-413371803#0" to="-167372797#0"/>
    <trip id="69" depart="69.00" from="8949535#0" to="8950615#0"/>
    <trip id="70" depart="70.00" from="-8957766#0" to="-413371806#1"/>
    <trip id="71" depart="71.00" from="-593271063#6" to="-413371803#0"/>
    <trip id="72" depart="72.00" from="8928339#6" to="-593271063#3"/>
    <trip id="73" depart="73.00" from="500268051#2" to="8965221"/>
    <trip id="74" depart="74.00" from="8957641#1" to="8960714"/>
    <trip id="75" depart="75.00" from="-8957791#12" to="8947392"/>
    <trip id="76" depart="76.00" from="-516209131#0" to="8957791#2"/>
    <trip id="77" depart="77.00" from="499994191#2" to="499994191#2"/>
    <trip id="78" depart="78.00" from="417001418" to="-8949535#0"/>
    <trip id="79" depart="79.00" from="239362319#1" to="287163353#1"/>
    <trip id="80" depart="80.00" from="-500265947#0" to="-425181546#0"/>
    <trip id="81" depart="81.00" from="393494140#0" to="-8968173"/>
    <trip id="82" depart="82.00" from="-8965678#0" to="-8949535#0"/>
    <trip id="83" depart="83.00" from="8958658" to="-52382916#0"/>
    <trip id="84" depart="84.00" from="239362319#0" to="425181551#4"/>
    <trip id="85" depart="85.00" from="8929064#4" to="-8958285"/>
    <trip id="86" depart="86.00" from="417028432#1" to="-122023538"/>
    <trip id="87" depart="87.00" from="-497210069" to="-8958285"/>
    <trip id="88" depart="88.00" from="-8945826#2" to="-8929064#1"/>
    <trip id="89" depart="89.00" from="8923342#1" to="502912967#1"/>
    <trip id="90" depart="90.00" from="506499370#3" to="-52380561#4"/>
    <trip id="91" depart="91.00" from="-8937839" to="-499994191#0"/>
    <trip id="92" depart="92.00" from="52380561#0" to="-8961428"/>
    <trip id="93" depart="93.00" from="8951752#2" to="-8929064#0"/>
    <trip id="94" depart="94.00" from="614365185#0" to="239362319#1"/>
    <trip id="95" depart="95.00" from="8957791#11" to="500268051#1"/>
    <trip id="96" depart="96.00" from="8929598" to="-8960603#0"/>
    <trip id="97" depart="97.00" from="-196622920#2" to="-8928698"/>
    <trip id="98" depart="98.00" from="425181546#4" to="-8944597"/>
    <trip id="99" depart="99.00" from="425181546#0" to="-8929064#0"/>
</routes>
