<configuration>
	<input>
		<net-file value="my_net.net.xml"/>
		<additional-files value="trips.trips.xml"/>
	</input>
	<time>
	<begin value="0"/>
	<end value="2000"/>
	</time>
</configuration>
