
<routes>
<vType accel="1.0" decel="5.0" id="Car" length="2.0" maxSpeed="100.0" sigma="0.0" />

<route id="route1" edges="1to2 2to3 3to5 5to7 out1"/>
<vehicle depart="10" id="veh1" route="route1" type="Car" />
</routes>

