<?xml version="1.0" encoding="UTF-8"?>

<!-- generated on Mon Mar 11 02:25:15 2019 by SUMO duarouter Version 0.32.0
<?xml version="1.0" encoding="UTF-8"?>

<configuration xmlns:xsi="http://www.w3.org/2001/XMLSchema-instance" xsi:noNamespaceSchemaLocation="http://sumo.dlr.de/xsd/duarouterConfiguration.xsd">

    <input>
        <net-file value="cupertino.net.xml"/>
        <route-files value="trips.trips.xml"/>
    </input>

    <output>
        <output-file value="routes.rou.xml"/>
        <alternatives-output value="routes.rou.alt.xml"/>
    </output>

    <processing>
        <ignore-errors value="true"/>
    </processing>

    <time>
        <begin value="0"/>
        <end value="100.0"/>
    </time>

    <report>
        <no-warnings value="true"/>
        <no-step-log value="true"/>
    </report>

</configuration>
-->

<routes xmlns:xsi="http://www.w3.org/2001/XMLSchema-instance" xsi:noNamespaceSchemaLocation="http://sumo.dlr.de/xsd/routes_file.xsd">
    <vehicle id="0" depart="0.00">
        <route edges="291249031 287163352#0 393499043#0 393499043#2 502912967#0 502912967#1 502912967#2 502912967#3 502912964#1 196622920#1 196622920#2 196622920#3 196622920#4 196622920#5 409476488 409241728 393499042#0 393499042#1 393499042#2 8963903 399193855 -521808595#1 198990388#0 198990388#1 198990388#2 198990388#4 198990388#6 317693321#0 317693321#1 519604510 317693320#0 317693320#1 317693320#2 317693320#3 317693320#4"/>
    </vehicle>
    <vehicle id="1" depart="1.00">
        <route edges="8960530 -516209131#0 -500265947#0 500264959#1 -213852930"/>
    </vehicle>
    <vehicle id="2" depart="2.00">
        <route edges="417028453#1 593271059#1 593271059#2 593271059#3 500268051#1 500268051#2 393494135#0 8959024#9 8959024#10 8959024#11 8959024#12 8959024#13 52382916#0 52382916#1 52382916#2 52382916#3 52382909 -500264960 -8923342#0"/>
    </vehicle>
    <vehicle id="3" depart="3.00">
        <route edges="8960530 -516209131#0 -500265947#0 500264959#1 500264959#2 500264959#3 500264959#5 500264959#6 -614365185#1 -614365185#0 8959024#0 8959024#1 8959024#2 8959024#3 8959024#4 8959024#5 8959024#9 8959024#10 8959024#11 8959024#12 8959024#13 52382916#0 52382916#1 52382916#2 52382916#3 52382909 -500264960 8965171"/>
    </vehicle>
    <vehicle id="4" depart="4.00">
        <route edges="52380561#9 -334521370#8 -334521370#7 -334521370#6 -334521370#5 -334521370#4 -334521370#3 -334521370#2 -334521370#0 334521371#0 519569267#1 417030765#0 417030765#1 417030765#2 417030879#0 417030879#1 417030879#2 -393494126 -393494127#1 -393494127#0 -8949535#7 -8949535#6 -8949535#5 -8949535#4 167372797#1 167372796"/>
    </vehicle>
    <vehicle id="5" depart="5.00">
        <route edges="-8958285 -167372797#1 8949535#4 8949535#5 8949535#6 8949535#7 393494127#0 393494127#1 393494126 417030912#0 417030912#1 417030912#2 417030912#3 417030912#4 417030912#5 417030805#0 417030805#1 417030805#2 417030921#1 417030921#2 417030921#3 417030921#4 593271050 593271049#0 593271049#1 417028453#0 417028453#1 157747965#1 157747965#2 157747965#3 8937117#0 8937117#1 8937117#2 8937117#3 8937117#4"/>
    </vehicle>
    <vehicle id="6" depart="6.00">
        <route edges="393494135#0 -8959024#6 -8959024#4 -8959024#3 -8959024#2 -8959024#1 -8959024#0 367054416"/>
    </vehicle>
    <vehicle id="7" depart="7.00">
        <route edges="198982494#4 449806149#0 449806149#1 317693331#0 317693331#1 317693329#0 593271037 317693326#0 5031806#0 5031806#2 317693325#0 317693325#1 157747965#1 157747965#2 157747965#3 8937117#0 8937117#1 8937117#2 8937117#3 8937117#4 499994191#1"/>
    </vehicle>
    <vehicle id="8" depart="8.00">
        <route edges="8949535#7 393494127#0 393494127#1 393494126 417030912#0 417030912#1 417030912#2 417030912#3 417030912#4 417030912#5 417030805#0 417030805#1 417030805#2 417030921#1 417030921#2 417030921#3 417030921#4 593271050 593271049#0 593271049#1 417028453#0 417028453#1 157747965#1 157747965#2 157747965#3 157747965#4 157747965#5 417028444#0 417028444#1 519604509#0 519604506 417028432#1 417028432#2 415836041#0 415836041#1 521808595#0 157747968 -393499042#2 -393499042#1 -393499042#0 -409241728 -393510706 -196622920#5 -196622920#4 -196622920#3 -196622920#2 -196622920#1 -196622920#0 -502912965#0 -502912967#2 502912967#2"/>
    </vehicle>
    <vehicle id="9" depart="9.00">
        <route edges="516208799#1 -516209131#0 -500265947#0 500264959#1 500264959#2 500264959#3 500264959#5 500264959#6 614365186#0 614365186#1 614365186#2 393494140#2 393494140#3 25085669#0 25085669#1 25085669#2 157747965#1 157747965#2 157747965#3 157747965#4 157747965#5 417028444#0 417028444#1 519604509#0 -425181546#7 -425181546#5 -425181546#4 -425181546#2 -425181546#1 -425181546#0 -334521370#8 334521370#8"/>
    </vehicle>
    <vehicle id="10" depart="10.00">
        <route edges="8929598 -8957791#9 -8957791#8 -8957791#7 -8957791#5 52380561#0 52380561#1 52380561#2 52380561#3 52380561#4 52380561#6 52380561#7 52380561#9 425181546#0 425181546#1 425181546#2 425181546#4 425181546#5 425181546#6 519604510 317693320#0 317693320#1 317693320#2 317693320#3 317693320#4 8947529 413371803#0 8958659 362457621#0 -362457621#0"/>
    </vehicle>
    <vehicle id="11" depart="11.00">
        <route edges="8950374#0 8950374#1 8950374#2 -8933723 413371806#0 413371806#1 287163354#2 287163355#0 287163355#1 8941244#0 8941244#1 8941244#2 8941244#3 8941244#4 287163330#0 287163330#1 239362308#0 239362308#1 287163332#2 417002742 417002721"/>
    </vehicle>
    <vehicle id="12" depart="12.00">
        <route edges="-521808595#1 198990388#0 198990388#1 198990388#2 198990388#4 198990388#6 317693321#0 317693321#1 519604508 417725137 417725134 317693323#0 317693323#1 317693323#2 593271059#1 593271059#2 593271059#3 500268051#1 500268051#2 393494135#0 8959024#9 8959024#10 8959024#11 8959024#12 8959024#13 52382916#0 52382916#1 52382916#2 52382916#3 52382909 -516680594 -8951752#4 8951752#4"/>
    </vehicle>
    <vehicle id="13" depart="13.00">
        <route edges="8949535#0 8949535#2 8949535#3 8949535#4 8949535#5 8949535#6 8949535#7 393494127#0 393494127#1 393494126 417030912#0 417030912#1 417030912#2 417030912#3 417030912#4 417030912#5 417030805#0 417030805#1 417030805#2 417030921#1 417030921#2 417030921#3 417030921#4 593271050 593271049#0 593271049#1 417028453#0 417028453#1 157747965#1 157747965#2 157747965#3 157747965#4 157747965#5 417028444#0 417028444#1 519604509#0 519604510 317693320#0 317693320#1 317693320#2 317693320#3 317693320#4 8947529 413371803#0 8958659 362457621#0 362457621#1 -8937316"/>
    </vehicle>
    <vehicle id="14" depart="14.00">
        <route edges="8939135 -500265947#0 500264959#1 500264959#2 500264959#3 500264959#5 500264959#6 -614365185#1 -614365185#0 8959024#0 8959024#1 8959024#2 8959024#3 8959024#4 8959024#5 8959024#9 8959024#10 -8953819#0"/>
    </vehicle>
    <vehicle id="15" depart="15.00">
        <route edges="291249031 287163352#0 393499043#0 393499043#2 502912967#0 502912967#1 502912967#2 502912967#3 502912964#1 196622920#1 196622920#2 196622920#3 196622920#4 196622920#5 409476488 409241728 393499042#0 393499042#1 393499042#2 8963903 399193855 -521808595#1 198990388#0 198990388#1 198990388#2 198990388#4 198990388#6 317693321#0 317693321#1 519604508 417725137 417725134 317693323#0 317693323#1 317693323#2 593271059#1 593271059#2 593271059#3 500268051#1 500268051#2 393494135#0 -8959024#6 -8959024#4 -8959024#3 -8959024#2 8959024#2"/>
    </vehicle>
    <vehicle id="16" depart="16.00">
        <route edges="-516209131#1 -516209131#0 -500265947#0 500264959#1 500264959#2 500264959#3 500264959#5 500264959#6 614365186#0 614365186#1 614365186#2 393494140#2 393494140#3 25085669#0 25085669#1 25085669#2 157747965#1 157747965#2 157747965#3 157747965#4 157747965#5 417028444#0 417028444#1 519604509#0 519604506 417028432#1 417028432#2 415836041#0 415836041#1"/>
    </vehicle>
    <vehicle id="17" depart="17.00">
        <route edges="-8957791#13 -8957791#12 -8957791#11 -8957791#9 -8957791#8 -8957791#7 -8957791#5 -8957791#4 -8957791#3 -8957791#2 -8957791#1 -8957791#0 -393494142#2 -393494142#0 -393494126 -393494127#1 -393494127#0 -8949535#7 -8949535#6 -8949535#5 -8949535#4 -8949535#3 -8949535#2 -8949535#0"/>
    </vehicle>
    <vehicle id="19" depart="19.00">
        <route edges="8935463#1 8935463#2 -196622920#1 -196622920#0 -413371804#1 413371804#1"/>
    </vehicle>
    <vehicle id="20" depart="20.00">
        <route edges="-8935463#2 -8935463#1 8950374#2 -8933723 -8928698"/>
    </vehicle>
    <vehicle id="21" depart="21.00">
        <route edges="8939135 -500265947#0 -500264959#0 -614365187#3 -614365187#2 -614365187#1 -614365187#0"/>
    </vehicle>
    <vehicle id="22" depart="22.00">
        <route edges="-8937316 -8950374#0 -8947529 -317693320#4 -317693320#3 -317693320#2 -317693320#1 -317693320#0 -519604510 519604508 417725137 417725134 317693323#0 317693323#1 317693323#2 157747965#1 157747965#2 157747965#3 157747965#4 157747965#5 417028444#0 417028444#1 519604509#0"/>
    </vehicle>
    <vehicle id="23" depart="23.00">
        <route edges="8961428 239362311#0 239362311#1 287163331#0 198982494#0 198982494#1 198982494#2 198982494#3 198982494#4 449806149#0 449806149#1 317693331#0 317693331#1 317693329#0 593271037 317693326#0 5031806#0 5031806#2 317693325#0 317693325#1 506499370#1 506499370#2 506499370#3 506499370#4 593271044#0 519569267#1 417030765#0 417030765#1 417030765#2 417030879#0 417030879#1 417030879#2 393494142#0 393494142#2 8957791#0 8957791#1 8957791#2 8957791#3 8957791#4 8957791#5 8957791#7 8957791#8 8957791#9 8957791#11 8957791#12"/>
    </vehicle>
    <vehicle id="24" depart="24.00">
        <route edges="8950374#0 8950374#1 8950374#2 -8933723 -8928698 -499994191#1 -499994191#0"/>
    </vehicle>
    <vehicle id="25" depart="25.00">
        <route edges="-425181551#4 -425181551#2 -425181551#1 -425181551#0 -649528534 -506501029#1 -506501029#0 425181546#0 425181546#1 425181546#2 425181546#4 425181546#5 425181546#6 519604510 317693320#0 317693320#1 317693320#2 317693320#3 317693320#4 8947529 8950374#0 8950374#1 8950374#2 -8933723 413371806#0 -8941688"/>
    </vehicle>
    <vehicle id="26" depart="26.00">
        <route edges="-499994191#0 -8937117#3 -8937117#2 -8937117#1 -8937117#0 157747965#4 157747965#5 417028444#0 417028444#1 519604509#0 519604506 417028432#1 417028432#2 415836041#0 415836041#1 -499994493#1 -8928339#8 -8928339#7 -8928339#6 -8928339#5 -8928339#4 -8928339#3 -8928339#2 -8928339#1 8928339#1"/>
    </vehicle>
    <vehicle id="27" depart="27.00">
        <route edges="-334521370#7 334521370#7 334521370#8 425181546#0 425181546#1 425181546#2 425181546#4 425181546#5 425181546#6 519604506 417028432#1 417028432#2 415836041#0 415836041#1 198990388#0 198990388#1 198990388#2 198990388#4"/>
    </vehicle>
    <vehicle id="28" depart="28.00">
        <route edges="-614308044#1 -614308044#0 -8959024#12 -8959024#11 -8959024#10 -8959024#9 393494140#0 393494140#2 393494140#3 25085669#0 25085669#1 25085669#2 157747965#1 157747965#2 157747965#3 157747965#4 157747965#5 417028444#0 417028444#1 519604509#0 519604510 317693320#0 317693320#1 317693320#2 317693320#3 317693320#4 413371802"/>
    </vehicle>
    <vehicle id="29" depart="29.00">
        <route edges="-465478621 500264959#5 500264959#6 614365186#0 614365186#1 614365186#2 393494140#2 393494140#3 25085669#0 25085669#1 25085669#2 157747965#1 157747965#2 157747965#3 157747965#4 157747965#5 417028444#0 417028444#1 519604509#0 519604510 317693320#0 317693320#1 317693320#2 317693320#3 317693320#4 8947529 8950374#0 8950374#1 8950374#2 413371804#0 413371804#1"/>
    </vehicle>
    <vehicle id="30" depart="30.00">
        <route edges="500268051#1 500268051#2 393494135#0 393494140#0 393494140#2 393494140#3 25085669#0 25085669#1 25085669#2 506499370#1 506499370#2 506499370#3 506499370#4 593271044#0 519569267#1 417030765#0 417030765#1 417030765#2 417030879#0 417030879#1 417030879#2 393494142#0 393494142#2 8957791#0 8957791#1 8957791#2 8957791#3 8957791#4 8957791#5 8957791#7 8957791#8 8957791#9 8957791#11 8957766#0 -8929064#3 8929064#3"/>
    </vehicle>
    <vehicle id="32" depart="32.00">
        <route edges="8928339#6 8928339#7 8928339#8 332362001#0 198990388#1 198990388#2 198990388#4 198990388#6 317693321#0 317693321#1 519604508 417725137 417725134 317693323#0 317693323#1 317693323#2 593271059#1 593271059#2 593271059#3 500268051#1 500268051#2 393494135#0 8959024#9 8959024#10 8959024#11 8959024#12 8959024#13 52382916#0 52382916#1 52382916#2"/>
    </vehicle>
    <vehicle id="33" depart="33.00">
        <route edges="-8959024#9 393494140#0 393494140#2"/>
    </vehicle>
    <vehicle id="34" depart="34.00">
        <route edges="8949535#0 8949535#2 8949535#3 8949535#4 8949535#5 8949535#6 8949535#7 393494127#0 393494127#1 393494126 417030912#0 417030912#1 417030912#2 417030912#3 417030912#4 417030912#5 417030805#0 417030805#1 417030805#2 417030921#1 417030921#2 417030921#3 417030921#4 593271050 593271049#0 593271049#1 417028453#0 417028453#1 593271059#1 593271059#2 593271059#3 500268051#1 500268051#2"/>
    </vehicle>
    <vehicle id="35" depart="35.00">
        <route edges="-593271063#4 -593271063#3 -593271063#2 -593271063#1 -593271063#0 -500264959#6 -500264959#5 -500264959#3 -500264959#2 -500264959#1 -500264959#0 -614365187#3 614365187#3"/>
    </vehicle>
    <vehicle id="36" depart="36.00">
        <route edges="198990386#0 198990388#0 198990388#1 198990388#2 198990388#4 198990388#6 317693321#0 317693321#1 -425181546#7 -425181546#5 -425181546#4 -425181546#2 -425181546#1 -425181546#0 -52380561#9 -52380561#7 -52380561#6 52380561#6"/>
    </vehicle>
    <vehicle id="37" depart="37.00">
        <route edges="-8935463#1 -8950374#1 -8950374#0 -8947529 -317693320#4 -317693320#3 -317693320#2 -317693320#1 -317693320#0 -519604510 -425181546#7 -425181546#5 -425181546#4 -425181546#2 -425181546#1 -425181546#0 -334521370#8 -334521370#7 -334521370#6 -334521370#5 -334521370#4 -334521370#3 -334521370#2 -334521370#0 334521371#0 52382904#0 52382904#1 52382904#2 52382904#3 338881468#0 338881468#1"/>
    </vehicle>
    <vehicle id="38" depart="38.00">
        <route edges="-8959863 196622920#5 409476488 409241728 393499042#0 393499042#1 393499042#2 8963903 399193855 -521808595#1 198990388#0 198990388#1 198990388#2 198990388#4 198990388#6 317693321#0 317693321#1 -425181546#7 -425181546#5 -425181546#4 -425181546#2 -425181546#1 -425181546#0 -334521370#8 -334521370#7 -334521370#6 -334521370#5 -334521370#4 -334521370#3 -334521370#2 -334521370#0 334521371#0 52382904#0 52382904#1 52382904#2 52382904#3 8965678#0"/>
    </vehicle>
    <vehicle id="39" depart="39.00">
        <route edges="8963319#2 287163354#2 287163355#0 287163355#1 198982494#0 198982494#1 198982494#2 198982494#3 198982494#4 449806149#0 449806149#1 317693331#0 317693331#1 317693329#0 593271037 317693326#0 -593271063#6 -593271063#4 -593271063#3 -593271063#2"/>
    </vehicle>
    <vehicle id="40" depart="40.00">
        <route edges="-413371806#1 -413371806#0 8933723 -8950374#2 -8950374#1 -8950374#0 -8947529 -317693320#4 -317693320#3 -317693320#2 -317693320#1 -317693320#0 -519604510 -425181546#7 -425181546#5 -425181546#4 -425181546#2 -425181546#1 -425181546#0 -334521370#8 -334521370#7 -334521370#6 -334521370#5 -334521370#4 -334521370#3 -334521370#2 -334521370#0 334521371#0 52382904#0 52382904#1 52382904#2 8947392"/>
    </vehicle>
    <vehicle id="41" depart="41.00">
        <route edges="-8957791#13 -8957791#12 -8957791#11 -8957791#9 -8957791#8 -8957791#7 -8957791#5 52380561#0 52380561#1 52380561#2 52380561#3 52380561#4 52380561#6 52380561#7 52380561#9 425181546#0 425181546#1 425181546#2 425181546#4 425181546#5 425181546#6 519604510 317693320#0 317693320#1 317693320#2 317693320#3 317693320#4 413371802 -8945826#2"/>
    </vehicle>
    <vehicle id="42" depart="42.00">
        <route edges="-502912967#0 502912967#0 502912967#1 502912967#2 502912967#3 502912964#1 196622920#1 196622920#2 196622920#3 196622920#4 196622920#5 409476488 409241728 393499042#0 393499042#1 393499042#2 8963903 399193855 -521808595#1 -499994493#1 -8928339#8 -8928339#7 -8928339#6 -8928339#5 -8928339#4 -8928339#3 -8928339#2 -8928339#1 -8928339#0 8957791#13"/>
    </vehicle>
    <vehicle id="43" depart="43.00">
        <route edges="-8947529 8947529 8950374#0 8950374#1 8950374#2 413371804#0 -8945086 8945086"/>
    </vehicle>
    <vehicle id="44" depart="44.00">
        <route edges="-8960481 -196622920#2 -196622920#1 -196622920#0 -502912965#0 -502912967#2 -502912967#1 -502912967#0 -393499043#2 -393499043#1 239362319#0 239362319#1 239362319#2 287163353#0 287163353#1 -413371806#1"/>
    </vehicle>
    <vehicle id="45" depart="45.00">
        <route edges="-576876310 502912964#1 196622920#1 196622920#2 196622920#3 196622920#4 196622920#5 409476488 409241728 393499042#0 393499042#1 393499042#2 8963903 399193855 -521808595#1 198990388#0 198990388#1 198990388#2 198990388#4 198990388#6 317693321#0 317693321#1 519604508 417725137 417725134 317693323#0 317693323#1 317693323#2 593271059#1 593271059#2 593271059#3 500268051#1 500268051#2 393494135#0 20540091#0"/>
    </vehicle>
    <vehicle id="46" depart="46.00">
        <route edges="317693329#0 593271037 317693326#0 5031806#0 5031806#2 317693325#0 317693325#1 157747965#1 157747965#2 157747965#3 157747965#4 157747965#5 417028444#0 417028444#1 519604509#0 519604506 417028432#1 417028432#2 415836041#0 415836041#1 -499994493#1 -8928339#8 -8928339#7 -8928339#6 -8928339#5 -8928339#4 -8928339#3 -8928339#2 52380580"/>
    </vehicle>
    <vehicle id="47" depart="47.00">
        <route edges="-393499043#2 393499043#2 502912967#0 502912967#1 502912967#2 502912967#3 502912964#1 196622920#1 -8935463#2 -8947440#1 -8937316"/>
    </vehicle>
    <vehicle id="48" depart="48.00">
        <route edges="-8929064#4 -8957766#0 -8957791#11 -8957791#9 -8957791#8 -8957791#7 -8957791#5 -8957791#4 -8957791#3 -8957791#2 -8957791#1 -8957791#0 -393494142#2 -393494142#0 417030912#0 417030912#1 417030912#2 417030912#3 417030912#4 417030912#5 417030805#0 417030805#1 417030805#2 417030921#1 417030921#2 417030921#3 417030921#4 593271050 593271049#0 593271049#1 417028453#0 417028453#1 498007414#1 498007414#3 409235722 317693330#1 -593271063#6 -593271063#4 -593271063#3 -593271063#2 -593271063#1 -593271063#0 -614365185#1"/>
    </vehicle>
    <vehicle id="49" depart="49.00">
        <route edges="-317693320#4 -317693320#3 -317693320#2 -317693320#1 -317693320#0 -519604510 519604506 417028432#1 417028432#2 415836041#0 415836041#1 -499994493#1 -8928339#8 -8928339#7 -8928339#6 -8928339#5 -8928339#4 -8928339#3 -8928339#2 -8957641#1 -8957641#0 -8929064#0"/>
    </vehicle>
    <vehicle id="50" depart="50.00">
        <route edges="-8937839 -52382916#3 -52382916#2 -52382916#1 -52382916#0 -8959024#13 -8959024#12 -8959024#11 -8959024#10 -8959024#9 393494140#0 393494140#2 393494140#3 25085669#0 25085669#1 25085669#2 157747965#1 157747965#2 157747965#3 157747965#4 157747965#5 417028444#0 417028444#1 519604509#0 519604506 417028432#1 417028432#2 415836041#0 415836041#1 521808595#0 157747968 -393499042#2 -393499042#1 -393499042#0 -409241728 -393510706 -196622920#5 -196622920#4 -196622920#3 -196622920#2 -196622920#1 -196622920#0 -413371804#1"/>
    </vehicle>
    <vehicle id="51" depart="51.00">
        <route edges="516208799#1 516209131#1 -417002742 -287163332#2 -287163332#0 -239362308#0 239362311#0 239362311#1 287163331#0 8963319#1 8963319#2 -413371806#1 413371806#1"/>
    </vehicle>
    <vehicle id="52" depart="52.00">
        <route edges="-8935463#2 8935463#2 -196622920#1 -196622920#0 -502912965#0 -502912967#2 -502912967#1 -502912967#0 -393499043#2 -393499043#1 239362319#0 239362319#1 239362319#2 287163353#0 287163353#1 287163354#2 287163355#0 287163355#1 8941244#0 8941244#1 8941244#2 8941244#3 8941244#4 287163330#0 287163330#1 239362308#0 239362308#1 287163332#2 417002742 -417002742"/>
    </vehicle>
    <vehicle id="53" depart="53.00">
        <route edges="417028432#2 415836041#0 415836041#1 198990388#0 198990388#1 198990388#2 198990388#4 198990388#6 317693321#0 317693321#1 -425181546#7 -425181546#5 -425181546#4 -425181546#2 -425181546#1 -425181546#0 -52380561#9 -52380561#7 -52380561#6 -52380561#4 -52380561#3 -52380561#2 -52380561#1"/>
    </vehicle>
    <vehicle id="54" depart="54.00">
        <route edges="-8949535#3 8949535#3 8949535#4 8949535#5 8949535#6 8949535#7 393494127#0 393494127#1 393494126 417030912#0 417030912#1 417030912#2 417030912#3 417030912#4 417030912#5 417030805#0 417030805#1 417030805#2 417030921#1 417030921#2 417030921#3 417030921#4 593271050 593271049#0 593271049#1 417028453#0 417028453#1 157747965#1 157747965#2 157747965#3 8937117#0 8937117#1 8937117#2 8937117#3 8937117#4 499994191#1 499994191#2"/>
    </vehicle>
    <vehicle id="55" depart="55.00">
        <route edges="-8958659 -413371803#0 -8947529 -317693320#4 -317693320#3 -317693320#2 -317693320#1 -317693320#0 -519604510 -425181546#7 -425181546#5 -425181546#4 -425181546#2 -425181546#1 -425181546#0 -52380561#9 -52380561#7 -52380561#6 -52380561#4 -52380561#3 -52380561#2 -52380561#1 -52380561#0 -8956612"/>
    </vehicle>
    <vehicle id="56" depart="56.00">
        <route edges="-334521370#6 334521370#6 334521370#7 334521370#8 425181546#0 425181546#1 425181546#2 425181546#4 425181546#5 425181546#6 519604510 317693320#0 317693320#1 317693320#2 317693320#3 317693320#4 8947529 8950374#0 8950374#1 8950374#2 -8933723 413371806#0 413371806#1"/>
    </vehicle>
    <vehicle id="57" depart="57.00">
        <route edges="-8957791#13 -8957791#12 -8957791#11 -8957791#9 -8957791#8 -8957791#7 -8957791#5 -8957791#4 -8957791#3 -8957791#2 -8957791#1 -8957791#0 -393494142#2 -393494142#0 417030912#0 417030912#1 417030912#2 417030912#3 417030912#4 8951752#0 8951752#1 8951752#2 -8951752#2"/>
    </vehicle>
    <vehicle id="58" depart="58.00">
        <route edges="-8929064#0 8957641#1 8928339#2 8928339#3 8928339#4 8928339#5 8928339#6 8928339#7 8928339#8 332362001#0 198990388#1 198990388#2 198990388#4 198990388#6 317693321#0 317693321#1 519604510 317693320#0 317693320#1 -317693320#1"/>
    </vehicle>
    <vehicle id="59" depart="59.00">
        <route edges="-614365187#0 239362311#0 239362311#1 287163331#0 198982494#0 198982494#1 198982494#2 198982494#3 198982494#4 449806149#0 449806149#1 317693331#0 317693331#1 317693329#0 593271037 317693326#0 5031806#0 5031806#2 317693325#0 317693325#1 506499370#1 506499370#2 506499370#3 506499370#4 593271044#0 52382904#0 52382904#1 52382904#2 8947392"/>
    </vehicle>
    <vehicle id="60" depart="60.00">
        <route edges="8928339#6 8928339#7 8928339#8 332362001#0 198990388#1 198990388#2 198990388#4 198990388#6 317693321#0 317693321#1 519604508 417725137 417725134 317693323#0 317693323#1 317693323#2 498007414#1 498007414#3 409235722 317693330#1 506497762 417727492 593271035 593271036#0 593271036#1 593271033#0 593271033#2 593271033#3 593271033#4 593271033#5 593271033#6 -614365187#3 -614365187#2 -614365187#1 -614365187#0"/>
    </vehicle>
    <vehicle id="61" depart="61.00">
        <route edges="8937316 -8947440#0 -362457621#0 -8958659 -413371803#0 -8947529 -317693320#4 -317693320#3 -317693320#2 -317693320#1 -317693320#0 -519604510 519604508 417725137 417725134 317693323#0 317693323#1 317693323#2 593271059#1 593271059#2 593271059#3 500268051#1 500268051#2 393494135#0 8959024#9 8959024#10 -8953819#0"/>
    </vehicle>
    <vehicle id="62" depart="62.00">
        <route edges="-614308044#1 -614308044#0 8959024#13 52382916#0 52382916#1 52382916#2 52382916#3 52382909 -500264960 -8923342#0 -8949535#0"/>
    </vehicle>
    <vehicle id="63" depart="63.00">
        <route edges="-8957791#8 -8957791#7 -8957791#5 -8957791#4 -8957791#3 -8957791#2 -8957791#1 -8957791#0 -393494142#2 -393494142#0 417030912#0 417030912#1 417030912#2 417030912#3 417030912#4 417030912#5 417030805#0 417030805#1 417030805#2 417030921#1 417030921#2 417030921#3 417030921#4 593271050 593271049#0 593271049#1 417028453#0 417028453#1 498007414#1 498007414#3 409235722 317693330#1 506497762 417727492 593271035 593271036#0 593271036#1 593271034#0 593271034#1 317693327#0 317693327#1 417001418 317693328#0 317693328#1 317693332#0 317693332#1 317693332#2 8963319#1 8963319#2 291249031"/>
    </vehicle>
    <vehicle id="64" depart="64.00">
        <route edges="-413371804#1 413371804#1 502912964#1 196622920#1 196622920#2 196622920#3 196622920#4 196622920#5 409476488 409241728 393499042#0 393499042#1 393499042#2 8963903 399193855 -521808595#1 -499994493#1 -8928339#8 -8928339#7 -8928339#6 -8928339#5 -8928339#4 -8928339#3 -8928339#2 -8957641#1 -8957641#0"/>
    </vehicle>
    <vehicle id="65" depart="65.00">
        <route edges="-8947440#0 -362457621#0 -8958659 -413371803#0 -8947529 -317693320#4 -317693320#3 -317693320#2 -317693320#1 -317693320#0 -519604510 519604508 417725137 417725134 317693323#0 317693323#1 317693323#2 498007414#1 498007414#3 409235722 317693330#1 506497762 417727492 593271035 593271036#0 593271036#1 593271034#0 593271034#1 317693327#0 317693327#1 417001418 317693328#0 317693328#1 317693332#0"/>
    </vehicle>
    <vehicle id="66" depart="66.00">
        <route edges="-8929064#1 -8929064#0 8957641#1 8928339#2 8928339#3 8928339#4 8928339#5 8928339#6 8928339#7 8928339#8 499994493#0 521808595#0 157747968 -393499042#2 -393499042#1 -393499042#0 -409241728 -393510706 -196622920#5 -196622920#4 -196622920#3 -196622920#2 -8935463#2"/>
    </vehicle>
    <vehicle id="67" depart="67.00">
        <route edges="519604509#0 519604508 417725137 417725134 317693323#0 317693323#1 317693323#2 593271059#1 593271059#2 593271059#3 500268051#1 500268051#2 393494135#0 -8959024#6 -8959024#4"/>
    </vehicle>
    <vehicle id="68" depart="68.00">
        <route edges="593271049#0 593271049#1 417028453#0 417028453#1 498007414#1 498007414#3 409235722 317693330#1 506497762 417727492 593271035 593271036#0 593271036#1 593271034#0 593271034#1 317693327#0 317693327#1 417001418 317693328#0 317693328#1 317693332#0"/>
    </vehicle>
    <vehicle id="69" depart="69.00">
        <route edges="-8944597 -8957791#5 -8957791#4 -8957791#3 -8957791#2 -8957791#1 -8957791#0 -393494142#2 -393494142#0 417030912#0 417030912#1 417030912#2 417030912#3 417030912#4 417030912#5 417030805#0 417030805#1 417030805#2 52382904#0 -52382904#0"/>
    </vehicle>
    <vehicle id="70" depart="70.00">
        <route edges="8957791#9 -8957791#9 -8957791#8 -8957791#7 -8957791#5 -8957791#4 -8957791#3 -8957791#2 -8957791#1 -8957791#0 -393494142#2 -393494142#0 417030912#0 417030912#1 417030912#2 417030912#3 417030912#4 8951752#0"/>
    </vehicle>
    <vehicle id="71" depart="71.00">
        <route edges="317693327#1 417001418 317693328#0 317693328#1 317693332#0 317693332#1 317693332#2 8941244#0 8941244#1 8941244#2 8941244#3 8941244#4 287163330#0 287163330#1 239362308#0 239362308#1 287163332#2 417002742 -516209131#1 -500206570#0"/>
    </vehicle>
    <vehicle id="72" depart="72.00">
        <route edges="8963319#1 8963319#2 291249031 287163352#0 393499043#0 393499043#2 502912967#0 502912967#1 502912967#2 502912967#3 502912964#1 196622920#1 196622920#2 196622920#3 196622920#4 196622920#5 409476488 409241728 393499042#0 393499042#1 393499042#2 8963903 399193855 -521808595#1 -499994493#1 -8928339#8 -8928339#7 -8928339#6 -8928339#5 8928339#5"/>
    </vehicle>
    <vehicle id="73" depart="73.00">
        <route edges="499994191#2 413371806#1 287163354#2 287163355#0 287163355#1 198982494#0 198982494#1 198982494#2 198982494#3 198982494#4 449806149#0 449806149#1 317693331#0 317693331#1 317693329#0 593271037 317693326#0 5031806#0"/>
    </vehicle>
    <vehicle id="74" depart="74.00">
        <route edges="8937117#4 8950615#0 8950615#1 413371802"/>
    </vehicle>
    <vehicle id="75" depart="75.00">
        <route edges="8939135 -500265947#0 500264959#1 500264959#2 500264959#3 500264959#5 500264959#6 614365186#0 614365186#1 614365186#2 393494140#2 393494140#3 25085669#0 25085669#1 25085669#2 157747965#1 157747965#2 157747965#3 157747965#4 157747965#5 417028444#0 417028444#1 519604509#0 519604506 417028432#1 417028432#2 415836041#0 415836041#1 -499994493#1 -8928339#8 -8928339#7 -8928339#6 -8928339#5 -8928339#4 8928339#4"/>
    </vehicle>
    <vehicle id="76" depart="76.00">
        <route edges="8950615#0 -8945826#2 -8945826#1 -8945826#0 417028444#1 519604509#0 519604508 417725137 417725134 317693323#0 317693323#1 317693323#2 498007414#1 498007414#3 409235722 317693330#1 -593271063#6 -593271063#4 -593271063#3 -593271063#2 -593271063#1 -593271063#0 -614365185#1"/>
    </vehicle>
    <vehicle id="77" depart="77.00">
        <route edges="52380561#6 52380561#7 52380561#9 425181546#0 425181546#1 425181546#2 425181546#4 425181546#5 425181546#6 519604510 317693320#0 317693320#1 317693320#2 317693320#3 317693320#4 8947529 8950374#0 8950374#1 8950374#2 -8933723 -8928698"/>
    </vehicle>
    <vehicle id="78" depart="78.00">
        <route edges="425181551#0 -425181551#0 -649528534 -506501029#1 -506501029#0 -334521370#8 -334521370#7 -334521370#6 -334521370#5 -334521370#4 -334521370#3 -334521370#2 -334521370#0 334521371#0 52382904#0 52382904#1 52382904#2 52382904#3 -52382904#3"/>
    </vehicle>
    <vehicle id="79" depart="79.00">
        <route edges="-317693320#3 -317693320#2 -317693320#1 -317693320#0 -519604510 519604508 417725137 417725134 317693323#0 317693323#1 317693323#2 498007414#1 498007414#3 409235722 317693330#1 506497762 417727492 593271035 593271036#0 593271036#1 593271034#0 593271034#1 317693327#0 317693327#1 417001418 317693328#0 317693328#1 317693332#0 317693332#1 317693332#2 8941244#0 8941244#1 8941244#2 8941244#3 8941244#4 287163330#0 287163330#1 239362308#0 239362308#1 287163332#2 417002742 -516209131#1"/>
    </vehicle>
    <vehicle id="80" depart="80.00">