<?xml version="1.0" encoding="UTF-8"?>

<!-- generated on Mon Mar  4 20:14:03 2019 by SUMO netconvert Version 0.32.0
<?xml version="1.0" encoding="UTF-8"?>

<configuration xmlns:xsi="http://www.w3.org/2001/XMLSchema-instance" xsi:noNamespaceSchemaLocation="http://sumo.dlr.de/xsd/netconvertConfiguration.xsd">

    <input>
        <osm-files value="map.osm"/>
    </input>

    <output>
        <output-file value="my_net.net.xml"/>
    </output>

    <projection>
        <proj.utm value="true"/>
    </projection>

    <tls_building>
        <tls.discard-simple value="true"/>
        <tls.join value="true"/>
        <tls.guess-signals value="true"/>
    </tls_building>

    <ramp_guessing>
        <ramps.guess value="true"/>
    </ramp_guessing>

    <processing>
        <geometry.remove value="true"/>
        <junctions.join value="true"/>
    </processing>

</configuration>
-->

<net version="0.27" xmlns:xsi="http://www.w3.org/2001/XMLSchema-instance" xsi:noNamespaceSchemaLocation="http://sumo.dlr.de/xsd/net_file.xsd">

    <location netOffset="-585067.03,-4091248.31" convBoundary="0.00,0.00,1020.17,1356.42" origBoundary="-122.044305,36.963414,-122.032838,36.975622" projParameter="+proj=utm +zone=10 +ellps=WGS84 +datum=WGS84 +units=m +no_defs"/>

    <type id="highway.bridleway" priority="1" numLanes="1" speed="2.78" allow="pedestrian" oneway="1" width="2.00"/>
    <type id="highway.bus_guideway" priority="1" numLanes="1" speed="8.33" allow="bus" oneway="1"/>
    <type id="highway.cycleway" priority="1" numLanes="1" speed="5.56" allow="bicycle" oneway="0" width="1.00"/>
    <type id="highway.footway" priority="1" numLanes="1" speed="2.78" allow="pedestrian" oneway="1" width="2.00"/>
    <type id="highway.ford" priority="1" numLanes="1" speed="2.78" allow="army" oneway="0"/>
    <type id="highway.living_street" priority="3" numLanes="1" speed="2.78" disallow="tram rail_urban rail rail_electric ship" oneway="0"/>
    <type id="highway.motorway" priority="13" numLanes="2" speed="44.44" allow="private emergency authority army vip passenger hov taxi bus coach delivery truck trailer motorcycle evehicle rogue custom1 custom2" oneway="1"/>
    <type id="highway.motorway_link" priority="12" numLanes="1" speed="22.22" allow="private emergency authority army vip passenger hov taxi bus coach delivery truck trailer motorcycle evehicle rogue custom1 custom2" oneway="1"/>
    <type id="highway.path" priority="1" numLanes="1" speed="2.78" allow="bicycle pedestrian" oneway="1" width="2.00"/>
    <type id="highway.pedestrian" priority="1" numLanes="1" speed="2.78" allow="pedestrian" oneway="1" width="2.00"/>
    <type id="highway.primary" priority="9" numLanes="2" speed="27.78" disallow="tram rail_urban rail rail_electric ship" oneway="0"/>
    <type id="highway.primary_link" priority="8" numLanes="1" speed="22.22" disallow="tram rail_urban rail rail_electric ship" oneway="0"/>
    <type id="highway.raceway" priority="14" numLanes="2" speed="83.33" allow="vip" oneway="0"/>
    <type id="highway.residential" priority="4" numLanes="1" speed="13.89" disallow="tram rail_urban rail rail_electric ship" oneway="0"/>
    <type id="highway.secondary" priority="7" numLanes="2" speed="27.78" disallow="tram rail_urban rail rail_electric ship" oneway="0"/>
    <type id="highway.secondary_link" priority="6" numLanes="1" speed="22.22" disallow="tram rail_urban rail rail_electric ship" oneway="0"/>
    <type id="highway.service" priority="2" numLanes="1" speed="5.56" allow="delivery bicycle pedestrian" oneway="0"/>
    <type id="highway.services" priority="1" numLanes="1" speed="8.33" disallow="tram rail_urban rail rail_electric ship" oneway="0"/>
    <type id="highway.stairs" priority="1" numLanes="1" speed="1.39" allow="pedestrian" oneway="1" width="2.00"/>
    <type id="highway.step" priority="1" numLanes="1" speed="1.39" allow="pedestrian" oneway="1" width="2.00"/>
    <type id="highway.steps" priority="1" numLanes="1" speed="1.39" allow="pedestrian" oneway="1" width="2.00"/>
    <type id="highway.tertiary" priority="6" numLanes="1" speed="22.22" disallow="tram rail_urban rail rail_electric ship" oneway="0"/>
    <type id="highway.tertiary_link" priority="5" numLanes="1" speed="22.22" disallow="tram rail_urban rail rail_electric ship" oneway="0"/>
    <type id="highway.track" priority="1" numLanes="1" speed="5.56" disallow="tram rail_urban rail rail_electric ship" oneway="0"/>
    <type id="highway.trunk" priority="11" numLanes="2" speed="27.78" disallow="tram rail_urban rail rail_electric bicycle pedestrian ship" oneway="0"/>
    <type id="highway.trunk_link" priority="10" numLanes="1" speed="22.22" disallow="tram rail_urban rail rail_electric bicycle pedestrian ship" oneway="0"/>
    <type id="highway.unclassified" priority="5" numLanes="1" speed="13.89" disallow="tram rail_urban rail rail_electric ship" oneway="0"/>
    <type id="highway.unsurfaced" priority="1" numLanes="1" speed="8.33" disallow="tram rail_urban rail rail_electric ship" oneway="0"/>
    <type id="railway.light_rail" priority="15" numLanes="1" speed="27.78" allow="rail_urban" oneway="1"/>
    <type id="railway.preserved" priority="15" numLanes="1" speed="27.78" allow="rail" oneway="1"/>
    <type id="railway.rail" priority="15" numLanes="1" speed="83.33" allow="rail rail_electric" oneway="1"/>
    <type id="railway.subway" priority="15" numLanes="1" speed="27.78" allow="rail_urban" oneway="1"/>
    <type id="railway.tram" priority="15" numLanes="1" speed="13.89" allow="tram" oneway="1"/>

    <edge id=":1705198710_0" function="internal">
        <lane id=":1705198710_0_0" index="0" disallow="tram rail_urban rail rail_electric ship" speed="27.78" length="5.47" shape="371.57,340.96 370.32,342.00 369.52,342.76 368.79,343.60 367.76,344.86"/>
    </edge>
    <edge id=":1705198710_1" function="internal">
        <lane id=":1705198710_1_0" index="0" disallow="tram rail_urban rail rail_electric ship" speed="27.78" length="2.41" shape="371.57,340.96 370.09,341.10 369.25,340.71"/>
    </edge>
    <edge id=":1705198710_4" function="internal">
        <lane id=":1705198710_4_0" index="0" speed="27.78" length="2.41" shape="369.25,340.71 369.05,339.81 369.49,338.39"/>
    </edge>
    <edge id=":1705198710_2" function="internal">
        <lane id=":1705198710_2_0" index="0" disallow="tram rail_urban rail rail_electric ship" speed="27.78" length="6.16" shape="365.20,342.78 366.35,341.36 367.18,340.42 368.09,339.56 369.49,338.39"/>
    </edge>
    <edge id=":1705198710_3" function="internal">
        <lane id=":1705198710_3_0" index="0" disallow="tram rail_urban rail rail_electric ship" speed="27.78" length="2.41" shape="365.20,342.78 366.62,342.34 367.52,342.54"/>
    </edge>
    <edge id=":1705198710_5" function="internal">
        <lane id=":1705198710_5_0" index="0" speed="27.78" length="2.41" shape="367.52,342.54 367.90,343.38 367.76,344.86"/>
    </edge>
    <edge id=":2351400465_0" function="internal">
        <lane id=":2351400465_0_0" index="0" disallow="tram rail_urban rail rail_electric ship" speed="27.78" length="5.02" shape="204.94,459.48 200.79,462.29"/>
    </edge>
    <edge id=":2351400465_1" function="internal">
        <lane id=":2351400465_1_0" index="0" disallow="tram rail_urban rail rail_electric ship" speed="27.78" length="2.41" shape="204.94,459.48 203.45,459.48 202.65,459.02"/>
    </edge>
    <edge id=":2351400465_4" function="internal">
        <lane id=":2351400465_4_0" index="0" speed="27.78" length="2.41" shape="202.65,459.02 202.54,458.11 203.11,456.73"/>
    </edge>
    <edge id=":2351400465_2" function="internal">
        <lane id=":2351400465_2_0" index="0" disallow="tram rail_urban rail rail_electric ship" speed="27.78" length="5.06" shape="198.92,459.57 203.11,456.73"/>
    </edge>
    <edge id=":2351400465_3" function="internal">
        <lane id=":2351400465_3_0" index="0" disallow="tram rail_urban rail rail_electric ship" speed="27.78" length="2.41" shape="198.92,459.57 200.40,459.55 201.21,460.00"/>
    </edge>
    <edge id=":2351400465_5" function="internal">
        <lane id=":2351400465_5_0" index="0" speed="27.78" length="2.41" shape="201.21,460.00 201.34,460.91 200.79,462.29"/>
    </edge>
    <edge id=":2564083379_0" function="internal">
        <lane id=":2564083379_0_0" index="0" disallow="tram rail_urban rail rail_electric ship" speed="13.89" length="4.82" shape="49.56,944.70 48.08,944.83 47.24,944.44 47.05,943.54 47.50,942.12"/>
    </edge>
    <edge id=":2575127253_0" function="internal">
        <lane id=":2575127253_0_0" index="0" disallow="tram rail_urban rail rail_electric ship" speed="13.89" length="5.17" shape="854.27,725.22 849.15,725.91"/>
    </edge>
    <edge id=":2575127253_1" function="internal">
        <lane id=":2575127253_1_0" index="0" disallow="tram rail_urban rail rail_electric ship" speed="13.89" length="2.41" shape="854.27,725.22 852.94,724.57 852.42,723.81"/>
    </edge>
    <edge id=":2575127253_4" function="internal">
        <lane id=":2575127253_4_0" index="0" speed="13.89" length="2.41" shape="852.42,723.81 852.72,722.93 853.83,721.95"/>
    </edge>
    <edge id=":2575127253_2" function="internal">
        <lane id=":2575127253_2_0" index="0" disallow="tram rail_urban rail rail_electric ship" speed="13.89" length="5.17" shape="848.71,722.64 853.83,721.95"/>
    </edge>
    <edge id=":2575127253_3" function="internal">
        <lane id=":2575127253_3_0" index="0" disallow="tram rail_urban rail rail_electric ship" speed="13.89" length="2.41" shape="848.71,722.64 850.04,723.29 850.56,724.06"/>
    </edge>
    <edge id=":2575127253_5" function="internal">
        <lane id=":2575127253_5_0" index="0" speed="13.89" length="2.41" shape="850.56,724.06 850.27,724.93 849.15,725.91"/>
    </edge>
    <edge id=":345446338_0" function="internal">
        <lane id=":345446338_0_0" index="0" disallow="tram rail_urban rail rail_electric ship" speed="27.78" length="6.88" shape="357.11,361.82 355.59,363.32 354.51,364.31 353.34,365.19 351.56,366.38"/>
        <lane id=":345446338_0_1" index="1" disallow="tram rail_urban rail rail_electric ship" speed="27.78" length="6.88" shape="354.79,359.47 353.41,360.84 352.42,361.74 351.36,362.54 349.75,363.62"/>
    </edge>
    <edge id=":345446338_2" function="internal">
        <lane id=":345446338_2_0" index="0" disallow="tram rail_urban rail rail_electric ship" speed="27.78" length="2.41" shape="354.79,359.47 353.33,359.76 352.46,359.46"/>
    </edge>
    <edge id=":345446338_6" function="internal">
        <lane id=":345446338_6_0" index="0" speed="27.78" length="2.41" shape="352.46,359.46 352.17,358.58 352.47,357.13"/>
    </edge>
    <edge id=":345446338_3" function="internal">
        <lane id=":345446338_3_0" index="0" disallow="tram rail_urban rail rail_electric ship" speed="27.78" length="5.56" shape="346.13,358.11 347.42,357.24 348.26,356.60 349.05,355.87 350.15,354.78"/>
        <lane id=":345446338_3_1" index="1" disallow="tram rail_urban rail rail_electric ship" speed="27.78" length="5.56" shape="347.94,360.87 349.39,359.89 350.34,359.17 351.23,358.36 352.47,357.13"/>
    </edge>
    <edge id=":345446338_5" function="internal">
        <lane id=":345446338_5_0" index="0" disallow="tram rail_urban rail rail_electric ship" speed="27.78" length="2.41" shape="347.94,360.87 349.43,360.88 350.23,361.34"/>
    </edge>
    <edge id=":345446338_7" function="internal">
        <lane id=":345446338_7_0" index="0" speed="27.78" length="2.41" shape="350.23,361.34 350.33,362.26 349.75,363.62"/>
    </edge>
    <edge id=":345446403_0" function="internal">
        <lane id=":345446403_0_0" index="0" disallow="tram rail_urban rail rail_electric ship" speed="11.18" length="7.97" shape="350.80,350.20 349.30,348.31 348.31,346.99 347.38,345.63 346.05,343.62"/>
        <lane id=":345446403_0_1" index="1" disallow="tram rail_urban rail rail_electric ship" speed="11.18" length="7.97" shape="353.38,348.15 351.94,346.32 350.99,345.05 350.09,343.74 348.81,341.81"/>
    </edge>
    <edge id=":345446403_2" function="internal">
        <lane id=":345446403_2_0" index="0" disallow="tram rail_urban rail rail_electric ship" speed="11.18" length="2.41" shape="353.38,348.15 353.26,346.66 353.64,345.83"/>
    </edge>
    <edge id=":345446403_6" function="internal">
        <lane id=":345446403_6_0" index="0" speed="11.18" length="2.41" shape="353.64,345.83 354.55,345.64 355.96,346.09"/>
    </edge>
    <edge id=":345446403_3" function="internal">
        <lane id=":345446403_3_0" index="0" disallow="tram rail_urban rail rail_electric ship" speed="11.18" length="7.37" shape="354.32,338.18 355.50,339.97 356.33,341.18 357.22,342.35 358.54,344.03"/>
        <lane id=":345446403_3_1" index="1" disallow="tram rail_urban rail rail_electric ship" speed="11.18" length="7.37" shape="351.57,339.99 352.79,341.86 353.66,343.12 354.58,344.34 355.96,346.09"/>
    </edge>
    <edge id=":345446403_5" function="internal">
        <lane id=":345446403_5_0" index="0" disallow="tram rail_urban rail rail_electric ship" speed="11.18" length="2.41" shape="351.57,339.99 351.56,341.48 351.09,342.28"/>
    </edge>
    <edge id=":345446403_7" function="internal">
        <lane id=":345446403_7_0" index="0" speed="11.18" length="2.41" shape="351.09,342.28 350.18,342.39 348.81,341.81"/>
    </edge>
    <edge id=":3632574689_0" function="internal">
        <lane id=":3632574689_0_0" index="0" disallow="tram rail_urban rail rail_electric ship" speed="11.18" length="9.33" shape="466.19,446.27 458.76,440.67"/>
        <lane id=":3632574689_0_1" index="1" disallow="tram rail_urban rail rail_electric ship" speed="11.18" length="9.33" shape="468.20,443.65 460.72,438.02"/>
    </edge>
    <edge id=":3632574689_2" function="internal">
        <lane id=":3632574689_2_0" index="0" allow="delivery bicycle pedestrian" speed="8.37" length="4.23" shape="468.20,443.65 466.50,441.57 466.24,440.05"/>
    </edge>
    <edge id=":3632574689_3" function="internal">
        <lane id=":3632574689_3_0" index="0" disallow="tram rail_urban rail rail_electric ship" speed="11.18" length="2.41" shape="468.20,443.65 467.72,442.24 467.90,441.34"/>
    </edge>
    <edge id=":3632574689_11" function="internal">
        <lane id=":3632574689_11_0" index="0" speed="8.37" length="8.74" shape="466.24,440.05 466.06,438.94 466.88,435.73 468.97,431.97"/>
    </edge>
    <edge id=":3632574689_12" function="internal">
        <lane id=":3632574689_12_0" index="0" speed="11.18" length="2.41" shape="467.90,441.34 468.73,440.93 470.21,441.04"/>
    </edge>
    <edge id=":3632574689_4" function="internal">
        <lane id=":3632574689_4_0" index="0" disallow="tram rail_urban rail rail_electric ship" speed="8.37" length="5.21" shape="471.71,433.81 471.04,435.14 470.90,436.35 471.30,437.44 472.22,438.42"/>
    </edge>
    <edge id=":3632574689_5" function="internal">
        <lane id=":3632574689_5_0" index="0" disallow="tram rail_urban rail rail_electric ship" speed="8.37" length="13.41" shape="471.71,433.81 468.95,437.16 466.19,438.98 463.45,439.27 460.72,438.02"/>
    </edge>
    <edge id=":3632574689_6" function="internal">
        <lane id=":3632574689_6_0" index="0" allow="delivery bicycle pedestrian" speed="5.56" length="4.82" shape="471.71,433.81 470.34,434.38 469.42,434.26 468.97,433.46 468.97,431.97"/>
    </edge>
    <edge id=":3632574689_7" function="internal">
        <lane id=":3632574689_7_0" index="0" allow="delivery bicycle pedestrian" speed="8.37" length="5.05" shape="464.65,432.71 465.88,433.37 467.01,433.47 468.04,433.00 468.97,431.97"/>
    </edge>
    <edge id=":3632574689_8" function="internal">
        <lane id=":3632574689_8_0" index="0" disallow="tram rail_urban rail rail_electric ship" speed="11.18" length="9.45" shape="464.65,432.71 472.22,438.42"/>
        <lane id=":3632574689_8_1" index="1" disallow="tram rail_urban rail rail_electric ship" speed="11.18" length="9.45" shape="462.69,435.36 470.21,441.04"/>
    </edge>
    <edge id=":3632574689_10" function="internal">
        <lane id=":3632574689_10_0" index="0" disallow="tram rail_urban rail rail_electric ship" speed="11.18" length="2.41" shape="462.69,435.36 463.19,436.76 463.03,437.67"/>
    </edge>
    <edge id=":3632574689_13" function="internal">
        <lane id=":3632574689_13_0" index="0" speed="11.18" length="2.41" shape="463.03,437.67 462.21,438.09 460.72,438.02"/>
    </edge>
    <edge id=":3632574692_0" function="internal">
        <lane id=":3632574692_0_0" index="0" allow="delivery bicycle pedestrian" speed="13.89" length="5.07" shape="837.78,581.29 837.50,579.92 836.84,579.00 835.81,578.52 834.41,578.49"/>
    </edge>
    <edge id=":3632574692_1" function="internal">
        <lane id=":3632574692_1_0" index="0" disallow="tram rail_urban rail rail_electric ship" speed="22.22" length="9.46" shape="837.78,581.29 837.36,571.84"/>
    </edge>
    <edge id=":3632574692_2" function="internal">
        <lane id=":3632574692_2_0" index="0" disallow="tram rail_urban rail rail_electric ship" speed="22.22" length="2.41" shape="837.78,581.29 838.53,580.01 839.33,579.54"/>
    </edge>
    <edge id=":3632574692_9" function="internal">
        <lane id=":3632574692_9_0" index="0" speed="22.22" length="2.41" shape="839.33,579.54 840.18,579.90 841.08,581.09"/>
    </edge>
    <edge id=":3632574692_3" function="internal">
        <lane id=":3632574692_3_0" index="0" disallow="tram rail_urban rail rail_electric ship" speed="22.22" length="9.33" shape="840.66,571.76 841.08,581.09"/>
    </edge>
    <edge id=":3632574692_4" function="internal">
        <lane id=":3632574692_4_0" index="0" allow="delivery bicycle pedestrian" speed="13.89" length="4.99" shape="840.66,571.76 840.32,574.41 839.17,576.42"/>
    </edge>
    <edge id=":3632574692_5" function="internal">
        <lane id=":3632574692_5_0" index="0" disallow="tram rail_urban rail rail_electric ship" speed="22.22" length="2.41" shape="840.66,571.76 839.86,573.02 839.05,573.45"/>
    </edge>
    <edge id=":3632574692_10" function="internal">
        <lane id=":3632574692_10_0" index="0" speed="13.89" length="5.27" shape="839.17,576.42 837.20,577.78 834.41,578.49"/>
    </edge>
    <edge id=":3632574692_11" function="internal">
        <lane id=":3632574692_11_0" index="0" speed="22.22" length="2.41" shape="839.05,573.45 838.21,573.06 837.36,571.84"/>
    </edge>
    <edge id=":3632574692_6" function="internal">
        <lane id=":3632574692_6_0" index="0" disallow="tram rail_urban rail rail_electric ship" speed="13.89" length="5.30" shape="834.01,575.21 835.50,574.85 836.56,574.16 837.18,573.16 837.36,571.84"/>
    </edge>
    <edge id=":3632574692_7" function="internal">
        <lane id=":3632574692_7_0" index="0" disallow="tram rail_urban rail rail_electric ship" speed="13.89" length="10.62" shape="834.01,575.21 836.95,575.28 839.10,576.28 840.48,578.21 841.08,581.09"/>
    </edge>
    <edge id=":3632574692_8" function="internal">
        <lane id=":3632574692_8_0" index="0" allow="delivery bicycle pedestrian" speed="5.56" length="4.82" shape="834.01,575.21 835.34,575.88 835.85,576.65 835.54,577.52 834.41,578.49"/>
    </edge>
    <edge id=":3693974828_0" function="internal">
        <lane id=":3693974828_0_0" index="0" allow="delivery bicycle pedestrian" speed="9.73" length="5.17" shape="446.19,721.65 445.30,720.63 444.25,720.13 443.06,720.16 441.70,720.72"/>
    </edge>
    <edge id=":3693974828_1" function="internal">
        <lane id=":3693974828_1_0" index="0" disallow="tram rail_urban rail rail_electric ship" speed="13.89" length="9.51" shape="446.19,721.65 441.11,713.61"/>
    </edge>
    <edge id=":3693974828_2" function="internal">
        <lane id=":3693974828_2_0" index="0" disallow="tram rail_urban rail rail_electric ship" speed="13.89" length="2.41" shape="446.19,721.65 446.22,720.16 446.70,719.37"/>
    </edge>
    <edge id=":3693974828_9" function="internal">
        <lane id=":3693974828_9_0" index="0" speed="13.89" length="2.41" shape="446.70,719.37 447.62,719.28 448.98,719.88"/>
    </edge>
    <edge id=":3693974828_3" function="internal">
        <lane id=":3693974828_3_0" index="0" disallow="tram rail_urban rail rail_electric ship" speed="13.89" length="9.51" shape="443.91,711.84 448.98,719.88"/>
    </edge>
    <edge id=":3693974828_4" function="internal">
        <lane id=":3693974828_4_0" index="0" allow="delivery bicycle pedestrian" speed="9.73" length="5.27" shape="443.91,711.84 445.09,714.50 445.12,716.86"/>
    </edge>
    <edge id=":3693974828_5" function="internal">
        <lane id=":3693974828_5_0" index="0" disallow="tram rail_urban rail rail_electric ship" speed="13.89" length="2.41" shape="443.91,711.84 443.87,713.33 443.39,714.12"/>
    </edge>
    <edge id=":3693974828_10" function="internal">
        <lane id=":3693974828_10_0" index="0" speed="9.73" length="5.27" shape="445.12,716.86 443.99,718.94 441.70,720.72"/>
    </edge>
    <edge id=":3693974828_11" function="internal">
        <lane id=":3693974828_11_0" index="0" speed="13.89" length="2.41" shape="443.39,714.12 442.47,714.21 441.11,713.61"/>
    </edge>
    <edge id=":3693974828_6" function="internal">
        <lane id=":3693974828_6_0" index="0" disallow="tram rail_urban rail rail_electric ship" speed="9.73" length="5.05" shape="440.06,717.86 441.15,717.00 441.70,716.01 441.68,714.88 441.11,713.61"/>
    </edge>
    <edge id=":3693974828_7" function="internal">
        <lane id=":3693974828_7_0" index="0" disallow="tram rail_urban rail rail_electric ship" speed="9.73" length="10.33" shape="440.06,717.86 442.72,716.78 445.09,716.76 447.18,717.79 448.98,719.88"/>
    </edge>
    <edge id=":3693974828_8" function="internal">
        <lane id=":3693974828_8_0" index="0" allow="delivery bicycle pedestrian" speed="5.56" length="4.82" shape="440.06,717.86 441.54,717.96 442.31,718.47 442.36,719.39 441.70,720.72"/>
    </edge>
    <edge id=":3693974829_0" function="internal">
        <lane id=":3693974829_0_0" index="0" disallow="tram rail_urban rail rail_electric ship" speed="22.22" length="9.56" shape="325.97,791.47 320.12,783.90"/>
    </edge>
    <edge id=":3693974829_1" function="internal">
        <lane id=":3693974829_1_0" index="0" allow="delivery bicycle pedestrian" speed="13.89" length="5.40" shape="325.97,791.47 324.45,788.78 324.26,786.48"/>
    </edge>
    <edge id=":3693974829_2" function="internal">
        <lane id=":3693974829_2_0" index="0" disallow="tram rail_urban rail rail_electric ship" speed="22.22" length="2.41" shape="325.97,791.47 325.86,789.99 326.26,789.16"/>
    </edge>
    <edge id=":3693974829_9" function="internal">
        <lane id=":3693974829_9_0" index="0" speed="13.89" length="5.64" shape="324.26,786.48 324.25,786.36 325.36,784.19 327.79,782.29"/>
    </edge>
    <edge id=":3693974829_10" function="internal">
        <lane id=":3693974829_10_0" index="0" speed="22.22" length="2.41" shape="326.26,789.16 327.17,788.98 328.58,789.45"/>
    </edge>
    <edge id=":3693974829_3" function="internal">
        <lane id=":3693974829_3_0" index="0" disallow="tram rail_urban rail rail_electric ship" speed="13.89" length="5.17" shape="329.43,785.15 328.29,786.05 327.77,787.06 327.87,788.20 328.58,789.45"/>
    </edge>
    <edge id=":3693974829_4" function="internal">
        <lane id=":3693974829_4_0" index="0" disallow="tram rail_urban rail rail_electric ship" speed="13.89" length="10.41" shape="329.43,785.15 326.68,786.32 324.21,786.50 322.03,785.70 320.12,783.90"/>
    </edge>
    <edge id=":3693974829_5" function="internal">
        <lane id=":3693974829_5_0" index="0" allow="delivery bicycle pedestrian" speed="5.56" length="4.82" shape="329.43,785.15 327.95,785.05 327.18,784.54 327.13,783.62 327.79,782.29"/>
    </edge>
    <edge id=":3693974829_6" function="internal">
        <lane id=":3693974829_6_0" index="0" allow="delivery bicycle pedestrian" speed="13.89" length="5.60" shape="322.73,781.89 323.71,782.77 324.88,783.13 326.24,782.97 327.79,782.29"/>
    </edge>
    <edge id=":3693974829_7" function="internal">
        <lane id=":3693974829_7_0" index="0" disallow="tram rail_urban rail rail_electric ship" speed="22.22" length="9.56" shape="322.73,781.89 328.58,789.45"/>
    </edge>
    <edge id=":3693974829_8" function="internal">
        <lane id=":3693974829_8_0" index="0" disallow="tram rail_urban rail rail_electric ship" speed="22.22" length="2.41" shape="322.73,781.89 322.84,783.37 322.44,784.20"/>
    </edge>
    <edge id=":3693974829_11" function="internal">
        <lane id=":3693974829_11_0" index="0" speed="22.22" length="2.41" shape="322.44,784.20 321.53,784.38 320.12,783.90"/>
    </edge>
    <edge id=":404394022_0" function="internal">
        <lane id=":404394022_0_0" index="0" disallow="tram rail_urban rail rail_electric ship" speed="9.73" length="3.96" shape="284.16,506.24 283.28,506.91 282.94,507.68 282.62,508.50 281.82,509.30"/>
    </edge>
    <edge id=":404394022_1" function="internal">
        <lane id=":404394022_1_0" index="0" disallow="tram rail_urban rail rail_electric ship" speed="13.89" length="1.49" shape="284.16,506.24 282.70,505.99"/>
    </edge>
    <edge id=":404394022_4" function="internal">
        <lane id=":404394022_4_0" index="0" speed="13.89" length="3.33" shape="282.70,505.99 281.99,505.40 282.03,504.48 282.83,503.22"/>
    </edge>
    <edge id=":404394022_2" function="internal">
        <lane id=":404394022_2_0" index="0" disallow="tram rail_urban rail rail_electric ship" speed="9.73" length="4.39" shape="280.07,506.50 280.99,505.63 281.40,504.76 281.83,503.94 282.83,503.22"/>
    </edge>
    <edge id=":404394022_3" function="internal">
        <lane id=":404394022_3_0" index="0" disallow="tram rail_urban rail rail_electric ship" speed="5.56" length="1.61" shape="280.07,506.50 281.56,506.54 281.67,506.61"/>
    </edge>
    <edge id=":404394022_5" function="internal">
        <lane id=":404394022_5_0" index="0" speed="5.56" length="3.21" shape="281.67,506.61 282.34,507.03 282.43,507.94 281.82,509.30"/>
    </edge>
    <edge id=":404394025_0" function="internal">
        <lane id=":404394025_0_0" index="0" disallow="tram rail_urban rail rail_electric ship" speed="5.56" length="4.82" shape="225.09,549.52 223.87,550.36 222.95,550.44 222.34,549.74 222.03,548.29"/>
    </edge>
    <edge id=":418856693_0" function="internal">
        <lane id=":418856693_0_0" index="0" disallow="tram rail_urban rail rail_electric ship" speed="13.89" length="4.82" shape="174.35,260.96 174.41,259.47 174.89,258.69 175.81,258.61 177.16,259.23"/>
    </edge>
    <edge id=":4927071075_0" function="internal">
        <lane id=":4927071075_0_0" index="0" disallow="tram rail_urban rail rail_electric ship" speed="11.18" length="9.50" shape="440.53,427.16 432.89,421.50"/>
        <lane id=":4927071075_0_1" index="1" disallow="tram rail_urban rail rail_electric ship" speed="11.18" length="9.50" shape="442.49,424.51 434.85,418.85"/>
    </edge>
    <edge id=":4927071075_2" function="internal">
        <lane id=":4927071075_2_0" index="0" allow="delivery bicycle pedestrian" speed="8.37" length="4.61" shape="442.49,424.51 440.49,422.25 440.19,420.69"/>
    </edge>
    <edge id=":4927071075_3" function="internal">
        <lane id=":4927071075_3_0" index="0" disallow="tram rail_urban rail rail_electric ship" speed="11.18" length="2.41" shape="442.49,424.51 441.99,423.11 442.15,422.20"/>
    </edge>
    <edge id=":4927071075_11" function="internal">
        <lane id=":4927071075_11_0" index="0" speed="8.37" length="8.82" shape="440.19,420.69 439.96,419.54 440.91,416.38 443.33,412.76"/>
    </edge>
    <edge id=":4927071075_12" function="internal">
        <lane id=":4927071075_12_0" index="0" speed="11.18" length="2.41" shape="442.15,422.20 442.97,421.78 444.46,421.86"/>
    </edge>
    <edge id=":4927071075_4" function="internal">
        <lane id=":4927071075_4_0" index="0" disallow="tram rail_urban rail rail_electric ship" speed="8.37" length="5.06" shape="445.88,414.85 445.16,416.05 445.01,417.17 445.43,418.22 446.42,419.20"/>
    </edge>
    <edge id=":4927071075_5" function="internal">
        <lane id=":4927071075_5_0" index="0" disallow="tram rail_urban rail rail_electric ship" speed="8.37" length="13.04" shape="445.88,414.85 442.86,417.94 440.02,419.64 437.35,419.94 434.85,418.85"/>
    </edge>
    <edge id=":4927071075_6" function="internal">
        <lane id=":4927071075_6_0" index="0" allow="delivery bicycle pedestrian" speed="5.56" length="4.82" shape="445.88,414.85 444.46,415.29 443.56,415.08 443.18,414.24 443.33,412.76"/>
    </edge>
    <edge id=":4927071075_7" function="internal">
        <lane id=":4927071075_7_0" index="0" allow="delivery bicycle pedestrian" speed="8.37" length="5.21" shape="438.78,413.55 439.98,414.17 441.13,414.25 442.25,413.78 443.33,412.76"/>
    </edge>
    <edge id=":4927071075_8" function="internal">
        <lane id=":4927071075_8_0" index="0" disallow="tram rail_urban rail rail_electric ship" speed="11.18" length="9.51" shape="438.78,413.55 446.42,419.20"/>
        <lane id=":4927071075_8_1" index="1" disallow="tram rail_urban rail rail_electric ship" speed="11.18" length="9.51" shape="436.82,416.20 444.46,421.86"/>
    </edge>
    <edge id=":4927071075_10" function="internal">
        <lane id=":4927071075_10_0" index="0" disallow="tram rail_urban rail rail_electric ship" speed="11.18" length="2.41" shape="436.82,416.20 437.32,417.60 437.16,418.51"/>
    </edge>
    <edge id=":4927071075_13" function="internal">
        <lane id=":4927071075_13_0" index="0" speed="11.18" length="2.41" shape="437.16,418.51 436.34,418.92 434.85,418.85"/>
    </edge>
    <edge id=":4927071081_0" function="internal">
        <lane id=":4927071081_0_0" index="0" disallow="tram rail_urban rail rail_electric ship" speed="27.78" length="4.82" shape="389.19,322.44 390.67,322.31 391.51,322.69 391.71,323.59 391.26,325.01"/>
    </edge>
    <edge id=":526759502_0" function="internal">