<?xml version="1.0" encoding="UTF-8"?>

<!-- generated on Mon Mar  4 20:14:37 2019 by SUMO duarouter Version 0.32.0
<?xml version="1.0" encoding="UTF-8"?>

<configuration xmlns:xsi="http://www.w3.org/2001/XMLSchema-instance" xsi:noNamespaceSchemaLocation="http://sumo.dlr.de/xsd/duarouterConfiguration.xsd">

    <input>
        <net-file value="my_net.net.xml"/>
        <route-files value="trips.trips.xml"/>
    </input>

    <output>
        <output-file value="my_route.rou.xml"/>
        <alternatives-output value="my_route.rou.alt.xml"/>
    </output>

    <processing>
        <ignore-errors value="true"/>
    </processing>

    <time>
        <begin value="0"/>
        <end value="50.0"/>
    </time>

    <report>
        <no-warnings value="true"/>
        <no-step-log value="true"/>
    </report>

</configuration>
-->

<routes xmlns:xsi="http://www.w3.org/2001/XMLSchema-instance" xsi:noNamespaceSchemaLocation="http://sumo.dlr.de/xsd/routes_file.xsd">
    <vehicle id="0" depart="0.00">
        <route edges="10550451#0 -10550151 10550151"/>
    </vehicle>
    <vehicle id="1" depart="1.00">
        <route edges="669527572 669527575 669458282 34815583#1 669458280 29733368#0 29733368#1 669529772#6 669529772#7 10551123#3"/>
    </vehicle>
    <vehicle id="2" depart="2.00">
        <route edges="669458282 34815583#1 669458280 29733368#0 29733368#1 669529772#6 669529772#7 -10551123#2"/>
    </vehicle>
    <vehicle id="3" depart="3.00">
        <route edges="-10555148#0 10552839#1 10552839#2 669527563 669458282 34815583#1 669458280 29733368#0 29733368#1 -669529772#5 669529772#5"/>
    </vehicle>
    <vehicle id="4" depart="4.00">
        <route edges="-10552707#0 -34815584#2 -34815584#0 669458282 34815583#1 669458280 29733368#0 29733368#1 669529772#6 669529772#7 669529772#8 669529772#9 -669529772#9"/>
    </vehicle>
    <vehicle id="5" depart="5.00">
        <route edges="669458277 -669529772#9 -669529772#8 -669529772#7 -669529772#6 -669529772#5 -669529772#4 -31067727#5 -10551027#1"/>
    </vehicle>
    <vehicle id="6" depart="6.00">
        <route edges="31067129#0 -31067129#0 -36855834#1"/>
    </vehicle>
    <vehicle id="7" depart="7.00">
        <route edges="10555048 669529772#0 669529772#1 669529772#2 669529772#3 669529772#4 669529772#5 -29733368#1 -29733368#0 -669458280 669458281#0 669458281#2 259681820#1 259681820#2 259681820#3 259681820#4 259681820#5 259681820#6 259681820#7 259681820#8 -663046463"/>
    </vehicle>
    <vehicle id="8" depart="8.00">
        <route edges="10555148#0 -10555148#0 10552839#1 10552839#2 669527563 669458282"/>
    </vehicle>
    <vehicle id="9" depart="9.00">
        <route edges="10552839#0 10555148#0 10555148#1 -10555148#1"/>
    </vehicle>
    <vehicle id="10" depart="10.00">
        <route edges="-669527563 669527563 669458282 34815583#1 669458281#0 669458281#2 259681820#1 259681820#2 259681820#3 259681820#4 259681820#5 259681820#6 259681820#7 259681820#8 259681820#9 669458275#1 669458272#0 669458272#1 669458272#2 669529783#0 669529783#1"/>
    </vehicle>
    <vehicle id="11" depart="11.00">
        <route edges="-669529772#1 669529772#1 669529772#2 669529772#3 -31067727#5 10551027#2"/>
    </vehicle>
    <vehicle id="12" depart="12.00">
        <route edges="-31067129#0 -36855834#1 -36855834#0 -99655905 -669458284 -34815584#4 34815584#4"/>
    </vehicle>
    <vehicle id="13" depart="13.00">
        <route edges="-10551123#2 -10551027#4 -10551027#3 29733368#1 -669529772#5 10555212#0 10555212#1"/>
    </vehicle>
    <vehicle id="14" depart="14.00">
        <route edges="-10555048 -31067347#0"/>
    </vehicle>
    <vehicle id="15" depart="15.00">
        <route edges="-10551123#3 -669529772#7 -669529772#6 -669529772#5 -669529772#4 -669529772#3 10550151 -10550451#0"/>
    </vehicle>
    <vehicle id="16" depart="16.00">
        <route edges="-10552707#4 10552707#4 -669529772#1 -669529772#0 -10555048"/>
    </vehicle>
    <vehicle id="17" depart="17.00">
        <route edges="669458281#0 669458281#2 259681820#1 259681820#2 259681820#3 -669458276#2 -669458276#1 -669458276#0 -10555148#1 -84964724#1 10550867"/>
    </vehicle>
    <vehicle id="18" depart="18.00">
        <route edges="-10551027#2 10551027#2 -29733368#0 -669458280 669458281#0 669458281#2 259681820#1 259681820#2 259681820#3 -669458276#2 -669458276#1 -669458276#0 -10555148#1"/>
    </vehicle>
    <vehicle id="19" depart="19.00">
        <route edges="10552839#1 10552839#2 669527563 669458282 34815583#1 669458280 29733368#0 29733368#1 -669529772#5 -669529772#4 -669529772#3 -669529772#2 -10552707#4"/>
    </vehicle>
    <vehicle id="20" depart="20.00">
        <route edges="669458281#0 -669458281#0 -34815583#2 -669527560 34815584#0"/>
    </vehicle>
    <vehicle id="21" depart="21.00">
        <route edges="669527563 669458282 34815583#1 669458280 29733368#0 29733368#1 669529772#6 669529772#7 669529772#8 669529772#9 -669458277"/>
    </vehicle>
    <vehicle id="22" depart="22.00">
        <route edges="-10555212#1 -10555212#0 -669529772#4 -669529772#3 -669529772#2 -669529772#1 -669529772#0 669529772#0"/>
    </vehicle>
    <vehicle id="23" depart="23.00">
        <route edges="-31067129#0 669529772#1 669529772#2 669529772#3 -31067727#5"/>
    </vehicle>
    <vehicle id="24" depart="24.00">
        <route edges="-10552707#4 -10551027#0 -36855834#0 -31067347#1 10555048"/>
    </vehicle>
    <vehicle id="25" depart="25.00">
        <route edges="10552707#4 669529772#2 669529772#3 669529772#4 669529772#5 31067747"/>
    </vehicle>
    <vehicle id="26" depart="26.00">
        <route edges="669458277 -669529772#9 -669529772#8 -669529772#7 -669529772#6 31067747"/>
    </vehicle>
    <vehicle id="27" depart="27.00">
        <route edges="-36855834#1 -36855834#0 -99655905 -669458284 -34815584#4 -34815584#3 -34815584#2 -34815584#0 -669527563 -10552839#2 -10552839#1 10555148#0 -84964724#1 10550867"/>
    </vehicle>
    <vehicle id="28" depart="28.00">
        <route edges="-10551123#1 -10551123#0 -259681820#2 -259681820#1 -259681820#0 -669458281#0 669458280 29733368#0 -10551027#2 31067727#5"/>
    </vehicle>
    <vehicle id="29" depart="29.00">
        <route edges="669529772#5 -669529772#5 -669529772#4 -669529772#3 -669529772#2 -669529772#1 -669529772#0"/>
    </vehicle>
    <vehicle id="30" depart="30.00">
        <route edges="-10553223 -669529783#2 -669529783#1 -669529783#0 -669458272#2 -669458272#1 -669458272#0 -669458275#1 -669458275#0 -259681820#8 -259681820#7 -259681820#6 -259681820#5 -259681820#4 -259681820#3 -259681820#2 -259681820#1 -259681820#0 -669458281#0 669458280 29733368#0 -10551027#2 10551027#2"/>
    </vehicle>
    <vehicle id="31" depart="31.00">
        <route edges="-68339453 663046464 663046463 -259681820#8 -259681820#7 -259681820#6 -259681820#5 -259681820#4 -259681820#3 -259681820#2 -259681820#1 -259681820#0 -669458281#0 669458280 29733368#0 -10551027#2 10551027#2"/>
    </vehicle>
    <vehicle id="32" depart="32.00">
        <route edges="669527572 669527575 -669527563 -10552839#2 -10552839#1 10555148#0 -10555148#0"/>
    </vehicle>
    <vehicle id="33" depart="33.00">
        <route edges="-259681820#7 -259681820#6 -259681820#5 -259681820#4 -259681820#3 -259681820#2 -259681820#1 -259681820#0 -669458281#0 -34815583#2 -669527560 34815584#0 34815584#2 34815584#3 34815584#4 669458284 99655905 31067347#2"/>
    </vehicle>
    <vehicle id="34" depart="34.00">
        <route edges="-10555148#1 10555148#1 10555148#2 669458276#1 669458276#2 -259681820#3 -259681820#2 -259681820#1 -259681820#0 -669458281#0 -669458283#2 -669458283#0 31067727#4"/>
    </vehicle>
    <vehicle id="35" depart="35.00">
        <route edges="31067129#0 -31067129#0 669529772#1 669529772#2 669529772#3 669529772#4 669529772#5 -29733368#1 -29733368#0 -669458280 669458281#0 669458281#2 259681820#1 259681820#2 259681820#3"/>
    </vehicle>
    <vehicle id="36" depart="36.00">
        <route edges="-10550151 669529772#3 669529772#4 669529772#5 -29733368#1 10551027#3 10551027#4 10551123#2"/>
    </vehicle>
    <vehicle id="37" depart="37.00">
        <route edges="-10555048 31067347#1 669458285 36855834#1 669529772#1 669529772#2 10550151 10550451#1"/>
    </vehicle>
    <vehicle id="38" depart="38.00">
        <route edges="10552707#4 -669529772#1 -36855834#1 -36855834#0 -99655905 -669458284 -50677334"/>
    </vehicle>
    <vehicle id="39" depart="39.00">
        <route edges="10550451#1 -10555212#0 669529772#5 669529772#6"/>
    </vehicle>
    <vehicle id="40" depart="40.00">
        <route edges="-10555212#1 -10555212#0 -669529772#4 669529772#4"/>
    </vehicle>
    <vehicle id="41" depart="41.00">
        <route edges="259681820#6 -259681820#6 -259681820#5 -259681820#4 -259681820#3 -259681820#2 -259681820#1 -259681820#0 -669458281#0 -34815583#2 -669527560 669458282"/>
    </vehicle>
    <vehicle id="42" depart="42.00">
        <route edges="10555212#0 -10555212#0 -669529772#4 -669529772#3 -669529772#2 -669529772#1 31067129#0"/>
    </vehicle>
    <vehicle id="43" depart="43.00">
        <route edges="10552839#0 10555148#0 10555148#1 10555148#2 669458276#1 669458276#2 259681820#4 259681820#5 259681820#6 259681820#7 259681820#8 259681820#9 669458275#1 -669458275#1"/>
    </vehicle>
    <vehicle id="44" depart="44.00">
        <route edges="-10553223 -669529783#2 -669529783#1 -669529783#0 -669458272#2 -669458272#1 -669458272#0 -669458275#1 -669458275#0 68339454"/>
    </vehicle>
    <vehicle id="45" depart="45.00">
        <route edges="31067129#0 -31067129#0 -36855834#1 -36855834#0 -99655905 -669458284 -34815584#4 -34815584#3 -34815584#2 -34815584#0 669458282"/>
    </vehicle>
    <vehicle id="46" depart="46.00">
        <route edges="669458279#0 669458279#1 669458278 259681820#3 259681820#4 259681820#5 259681820#6 259681820#7 259681820#8 68339454 34716003"/>
    </vehicle>
    <vehicle id="47" depart="47.00">
        <route edges="-31067129#0 669529772#1 669529772#2 669529772#3 669529772#4 669529772#5 -29733368#1 -29733368#0 -669458280 -34815583#2 -669527560"/>
    </vehicle>
    <vehicle id="48" depart="48.00">
        <route edges="29733368#1 -669529772#5 10555212#0 -10550451#1"/>
    </vehicle>
    <vehicle id="49" depart="49.00">
        <route edges="-10553223 -669529783#2 -669529783#1 -669529783#0 -669458272#2 -669458272#1 -669458272#0 -669458275#1 -669458275#0 -259681820#8 -259681820#7 -259681820#6 -259681820#5 -259681820#4 -259681820#3 -259681820#2 -259681820#1 -259681820#0 -669458281#0 669458280 29733368#0 29733368#1 -669529772#5 -669529772#4 -669529772#3 10550151"/>
    </vehicle>
</routes>
